# generated using pymatgen
data_Sr2SnS4
_symmetry_space_group_name_H-M   'P 1'
_cell_length_a   6.41002829
_cell_length_b   6.41002829
_cell_length_c   10.11599900
_cell_angle_alpha   90.00000000
_cell_angle_beta   90.00000000
_cell_angle_gamma   110.33263040
_symmetry_Int_Tables_number   1
_chemical_formula_structural   Sr2SnS4
_chemical_formula_sum   'Sr4 Sn2 S8'
_cell_volume   389.75214129
_cell_formula_units_Z   2
loop_
 _symmetry_equiv_pos_site_id
 _symmetry_equiv_pos_as_xyz
  1  'x, y, z'
loop_
 _atom_site_type_symbol
 _atom_site_label
 _atom_site_symmetry_multiplicity
 _atom_site_fract_x
 _atom_site_fract_y
 _atom_site_fract_z
 _atom_site_occupancy
  Sr  Sr0  1  0.79101400  0.79101400  0.50000000  1
  Sr  Sr1  1  0.79101400  0.79101400  0.00000000  1
  Sr  Sr2  1  0.14394200  0.52175300  0.75000000  1
  Sr  Sr3  1  0.52175300  0.14394200  0.25000000  1
  Sn  Sn4  1  0.54364400  0.09703900  0.75000000  1
  Sn  Sn5  1  0.09703900  0.54364400  0.25000000  1
  S  S6  1  0.35492600  0.89761900  0.55653400  1
  S  S7  1  0.89761900  0.35492600  0.44346600  1
  S  S8  1  0.35492600  0.89761900  0.94346600  1
  S  S9  1  0.89761900  0.35492600  0.05653400  1
  S  S10  1  0.61799800  0.49355900  0.75000000  1
  S  S11  1  0.49355900  0.61799800  0.25000000  1
  S  S12  1  0.04812400  0.90556300  0.25000000  1
  S  S13  1  0.90556300  0.04812400  0.75000000  1
