# generated using pymatgen
data_YbSnPd
_symmetry_space_group_name_H-M   'P 1'
_cell_length_a   7.79174379
_cell_length_b   7.79174379
_cell_length_c   3.76748600
_cell_angle_alpha   90.00000000
_cell_angle_beta   90.00000000
_cell_angle_gamma   119.99999821
_symmetry_Int_Tables_number   1
_chemical_formula_structural   YbSnPd
_chemical_formula_sum   'Yb3 Sn3 Pd3'
_cell_volume   198.08501086
_cell_formula_units_Z   3
loop_
 _symmetry_equiv_pos_site_id
 _symmetry_equiv_pos_as_xyz
  1  'x, y, z'
loop_
 _atom_site_type_symbol
 _atom_site_label
 _atom_site_symmetry_multiplicity
 _atom_site_fract_x
 _atom_site_fract_y
 _atom_site_fract_z
 _atom_site_occupancy
  Yb  Yb0  1  0.00000000  0.59889500  0.00000000  1
  Yb  Yb1  1  0.40110500  0.40110500  0.00000000  1
  Yb  Yb2  1  0.59889500  0.00000000  0.00000000  1
  Sn  Sn3  1  0.73064700  0.73064700  0.50000000  1
  Sn  Sn4  1  0.00000000  0.26935300  0.50000000  1
  Sn  Sn5  1  0.26935300  0.00000000  0.50000000  1
  Pd  Pd6  1  0.33333300  0.66666700  0.50000000  1
  Pd  Pd7  1  0.00000000  0.00000000  0.00000000  1
  Pd  Pd8  1  0.66666700  0.33333300  0.50000000  1
