# generated using pymatgen
data_Mn2CuO4
_symmetry_space_group_name_H-M   'P 1'
_cell_length_a   6.02316809
_cell_length_b   6.02316809
_cell_length_c   6.02316809
_cell_angle_alpha   60.00000000
_cell_angle_beta   60.00000000
_cell_angle_gamma   60.00000000
_symmetry_Int_Tables_number   1
_chemical_formula_structural   Mn2CuO4
_chemical_formula_sum   'Mn4 Cu2 O8'
_cell_volume   154.51119516
_cell_formula_units_Z   2
loop_
 _symmetry_equiv_pos_site_id
 _symmetry_equiv_pos_as_xyz
  1  'x, y, z'
loop_
 _atom_site_type_symbol
 _atom_site_label
 _atom_site_symmetry_multiplicity
 _atom_site_fract_x
 _atom_site_fract_y
 _atom_site_fract_z
 _atom_site_occupancy
  Mn  Mn0  1  0.62500000  0.62500000  0.12500000  1
  Mn  Mn1  1  0.62500000  0.12500000  0.62500000  1
  Mn  Mn2  1  0.12500000  0.62500000  0.62500000  1
  Mn  Mn3  1  0.62500000  0.62500000  0.62500000  1
  Cu  Cu4  1  0.25000000  0.25000000  0.25000000  1
  Cu  Cu5  1  0.00000000  0.00000000  0.00000000  1
  O  O6  1  0.86398800  0.86398800  0.86398800  1
  O  O7  1  0.84196400  0.38601200  0.38601200  1
  O  O8  1  0.38601200  0.38601200  0.84196400  1
  O  O9  1  0.38601200  0.84196400  0.38601200  1
  O  O10  1  0.86398800  0.86398800  0.40803600  1
  O  O11  1  0.86398800  0.40803600  0.86398800  1
  O  O12  1  0.38601200  0.38601200  0.38601200  1
  O  O13  1  0.40803600  0.86398800  0.86398800  1
