# generated using pymatgen
data_AlAsO4
_symmetry_space_group_name_H-M   'P 1'
_cell_length_a   5.13990002
_cell_length_b   5.13990002
_cell_length_c   11.46257300
_cell_angle_alpha   90.00000000
_cell_angle_beta   90.00000000
_cell_angle_gamma   120.00000030
_symmetry_Int_Tables_number   1
_chemical_formula_structural   AlAsO4
_chemical_formula_sum   'Al3 As3 O12'
_cell_volume   262.25398014
_cell_formula_units_Z   3
loop_
 _symmetry_equiv_pos_site_id
 _symmetry_equiv_pos_as_xyz
  1  'x, y, z'
loop_
 _atom_site_type_symbol
 _atom_site_label
 _atom_site_symmetry_multiplicity
 _atom_site_fract_x
 _atom_site_fract_y
 _atom_site_fract_z
 _atom_site_occupancy
  Al  Al0  1  0.46159300  0.00000000  0.33333300  1
  Al  Al1  1  0.00000000  0.46159300  0.66666700  1
  Al  Al2  1  0.53840700  0.53840700  0.00000000  1
  As  As3  1  0.46016600  0.00000000  0.83333300  1
  As  As4  1  0.00000000  0.46016600  0.16666700  1
  As  As5  1  0.53983400  0.53983400  0.50000000  1
  O  O6  1  0.28213200  0.40549000  0.11789100  1
  O  O7  1  0.59451000  0.87664200  0.45122500  1
  O  O8  1  0.12335800  0.71786800  0.78455800  1
  O  O9  1  0.87664200  0.59451000  0.54877500  1
  O  O10  1  0.71786800  0.12335800  0.21544200  1
  O  O11  1  0.40549000  0.28213200  0.88210900  1
  O  O12  1  0.40662800  0.29104300  0.38665200  1
  O  O13  1  0.70895700  0.11558500  0.71998600  1
  O  O14  1  0.88441500  0.59337200  0.05331900  1
  O  O15  1  0.11558500  0.70895700  0.28001400  1
  O  O16  1  0.59337200  0.88441500  0.94668100  1
  O  O17  1  0.29104300  0.40662800  0.61334800  1
