# generated using pymatgen
data_Nb4CrS8
_symmetry_space_group_name_H-M   'P 1'
_cell_length_a   6.69420201
_cell_length_b   6.69420201
_cell_length_c   12.08494400
_cell_angle_alpha   90.00000000
_cell_angle_beta   90.00000000
_cell_angle_gamma   120.00000009
_symmetry_Int_Tables_number   1
_chemical_formula_structural   Nb4CrS8
_chemical_formula_sum   'Nb8 Cr2 S16'
_cell_volume   469.00006311
_cell_formula_units_Z   2
loop_
 _symmetry_equiv_pos_site_id
 _symmetry_equiv_pos_as_xyz
  1  'x, y, z'
loop_
 _atom_site_type_symbol
 _atom_site_label
 _atom_site_symmetry_multiplicity
 _atom_site_fract_x
 _atom_site_fract_y
 _atom_site_fract_z
 _atom_site_occupancy
  Nb  Nb0  1  0.50629100  0.01258200  0.75000000  1
  Nb  Nb1  1  0.49370900  0.50629100  0.25000000  1
  Nb  Nb2  1  0.01258200  0.50629100  0.25000000  1
  Nb  Nb3  1  0.98741800  0.49370900  0.75000000  1
  Nb  Nb4  1  0.50629100  0.49370900  0.75000000  1
  Nb  Nb5  1  0.49370900  0.98741800  0.25000000  1
  Nb  Nb6  1  0.00000000  0.00000000  0.75000000  1
  Nb  Nb7  1  0.00000000  0.00000000  0.25000000  1
  Cr  Cr8  1  0.00000000  0.00000000  0.50000000  1
  Cr  Cr9  1  0.00000000  0.00000000  0.00000000  1
  S  S10  1  0.83395300  0.16604700  0.11983200  1
  S  S11  1  0.83395300  0.66790700  0.11983200  1
  S  S12  1  0.33209300  0.16604700  0.11983200  1
  S  S13  1  0.66790700  0.83395300  0.61983200  1
  S  S14  1  0.16604700  0.33209300  0.88016800  1
  S  S15  1  0.16604700  0.83395300  0.61983200  1
  S  S16  1  0.16604700  0.33209300  0.61983200  1
  S  S17  1  0.83395300  0.16604700  0.38016800  1
  S  S18  1  0.33209300  0.16604700  0.38016800  1
  S  S19  1  0.66790700  0.83395300  0.88016800  1
  S  S20  1  0.33333300  0.66666700  0.11682200  1
  S  S21  1  0.66666700  0.33333300  0.61682200  1
  S  S22  1  0.66666700  0.33333300  0.88317800  1
  S  S23  1  0.33333300  0.66666700  0.38317800  1
  S  S24  1  0.83395300  0.66790700  0.38016800  1
  S  S25  1  0.16604700  0.83395300  0.88016800  1
