# generated using pymatgen
data_Th(CrSi)2
_symmetry_space_group_name_H-M   'P 1'
_cell_length_a   5.99857435
_cell_length_b   5.99857435
_cell_length_c   5.99857435
_cell_angle_alpha   141.00320727
_cell_angle_beta   141.00320727
_cell_angle_gamma   56.33319196
_symmetry_Int_Tables_number   1
_chemical_formula_structural   Th(CrSi)2
_chemical_formula_sum   'Th1 Cr2 Si2'
_cell_volume   84.79829652
_cell_formula_units_Z   1
loop_
 _symmetry_equiv_pos_site_id
 _symmetry_equiv_pos_as_xyz
  1  'x, y, z'
loop_
 _atom_site_type_symbol
 _atom_site_label
 _atom_site_symmetry_multiplicity
 _atom_site_fract_x
 _atom_site_fract_y
 _atom_site_fract_z
 _atom_site_occupancy
  Th  Th0  1  0.00000000  0.00000000  0.00000000  1
  Cr  Cr1  1  0.75000000  0.25000000  0.50000000  1
  Cr  Cr2  1  0.25000000  0.75000000  0.50000000  1
  Si  Si3  1  0.62213000  0.62213000  0.00000000  1
  Si  Si4  1  0.37787000  0.37787000  0.00000000  1
