# generated using pymatgen
data_KZrP2HO8
_symmetry_space_group_name_H-M   'P 1'
_cell_length_a   5.41966700
_cell_length_b   9.35397300
_cell_length_c   16.84846834
_cell_angle_alpha   65.68436760
_cell_angle_beta   90.00000000
_cell_angle_gamma   90.00000000
_symmetry_Int_Tables_number   1
_chemical_formula_structural   KZrP2HO8
_chemical_formula_sum   'K4 Zr4 P8 H4 O32'
_cell_volume   778.37021061
_cell_formula_units_Z   4
loop_
 _symmetry_equiv_pos_site_id
 _symmetry_equiv_pos_as_xyz
  1  'x, y, z'
loop_
 _atom_site_type_symbol
 _atom_site_label
 _atom_site_symmetry_multiplicity
 _atom_site_fract_x
 _atom_site_fract_y
 _atom_site_fract_z
 _atom_site_occupancy
  K  K0  1  0.94342600  0.50000000  0.75000000  1
  K  K1  1  0.05657400  0.50000000  0.25000000  1
  K  K2  1  0.03858600  0.00000000  0.75000000  1
  K  K3  1  0.96141400  0.00000000  0.25000000  1
  Zr  Zr4  1  0.22226500  0.25237200  0.50105900  1
  Zr  Zr5  1  0.22226500  0.74762800  0.99894100  1
  Zr  Zr6  1  0.77773500  0.74762800  0.49894100  1
  Zr  Zr7  1  0.77773500  0.25237200  0.00105900  1
  P  P8  1  0.27551000  0.83569300  0.61136900  1
  P  P9  1  0.27551000  0.16430700  0.88863100  1
  P  P10  1  0.72449000  0.16430700  0.38863100  1
  P  P11  1  0.72449000  0.83569300  0.11136900  1
  P  P12  1  0.72128300  0.33327800  0.61472700  1
  P  P13  1  0.72128300  0.66672200  0.88527300  1
  P  P14  1  0.27871700  0.66672200  0.38527300  1
  P  P15  1  0.27871700  0.33327800  0.11472700  1
  H  H16  1  0.47727500  0.74907200  0.74284300  1
  H  H17  1  0.47727500  0.25092800  0.75715700  1
  H  H18  1  0.52272500  0.25092800  0.25715700  1
  H  H19  1  0.52272500  0.74907200  0.24284300  1
  O  O20  1  0.23713200  0.01145400  0.58852500  1
  O  O21  1  0.23713200  0.98854600  0.91147500  1
  O  O22  1  0.76286800  0.98854600  0.41147500  1
  O  O23  1  0.76286800  0.01145400  0.08852500  1
  O  O24  1  0.50756200  0.80519700  0.56908300  1
  O  O25  1  0.50756200  0.19480300  0.93091700  1
  O  O26  1  0.49243800  0.19480300  0.43091700  1
  O  O27  1  0.49243800  0.80519700  0.06908300  1
  O  O28  1  0.04363400  0.76785300  0.58721600  1
  O  O29  1  0.04363400  0.23214700  0.91278400  1
  O  O30  1  0.95636600  0.23214700  0.41278400  1
  O  O31  1  0.95636600  0.76785300  0.08721600  1
  O  O32  1  0.47954900  0.30897800  0.57330500  1
  O  O33  1  0.47954900  0.69102200  0.92669500  1
  O  O34  1  0.52045100  0.69102200  0.42669500  1
  O  O35  1  0.52045100  0.30897800  0.07330500  1
  O  O36  1  0.22800100  0.48864400  0.41442600  1
  O  O37  1  0.22800100  0.51135600  0.08557400  1
  O  O38  1  0.77199900  0.51135600  0.58557400  1
  O  O39  1  0.77199900  0.48864400  0.91442600  1
  O  O40  1  0.93927000  0.26310800  0.58267700  1
  O  O41  1  0.93927000  0.73689200  0.91732300  1
  O  O42  1  0.06073000  0.73689200  0.41732300  1
  O  O43  1  0.06073000  0.26310800  0.08267700  1
  O  O44  1  0.30120300  0.74747800  0.71354100  1
  O  O45  1  0.30120300  0.25252200  0.78645900  1
  O  O46  1  0.69879700  0.25252200  0.28645900  1
  O  O47  1  0.69879700  0.74747800  0.21354100  1
  O  O48  1  0.70511100  0.74703800  0.78562400  1
  O  O49  1  0.70511100  0.25296200  0.71437600  1
  O  O50  1  0.29488900  0.25296200  0.21437600  1
  O  O51  1  0.29488900  0.74703800  0.28562400  1
