# generated using pymatgen
data_K3Nb3Ge2O13
_symmetry_space_group_name_H-M   'P 1'
_cell_length_a   9.43365895
_cell_length_b   9.43365895
_cell_length_c   7.93414400
_cell_angle_alpha   90.00000000
_cell_angle_beta   90.00000000
_cell_angle_gamma   119.99999265
_symmetry_Int_Tables_number   1
_chemical_formula_structural   K3Nb3Ge2O13
_chemical_formula_sum   'K6 Nb6 Ge4 O26'
_cell_volume   611.49243019
_cell_formula_units_Z   2
loop_
 _symmetry_equiv_pos_site_id
 _symmetry_equiv_pos_as_xyz
  1  'x, y, z'
loop_
 _atom_site_type_symbol
 _atom_site_label
 _atom_site_symmetry_multiplicity
 _atom_site_fract_x
 _atom_site_fract_y
 _atom_site_fract_z
 _atom_site_occupancy
  K  K0  1  0.60020500  0.00000000  0.50000000  1
  K  K1  1  0.39979500  0.39979500  0.50000000  1
  K  K2  1  0.00000000  0.60020500  0.50000000  1
  K  K3  1  0.61490300  0.00000000  0.00000000  1
  K  K4  1  0.38509700  0.38509700  0.00000000  1
  K  K5  1  0.00000000  0.61490300  0.00000000  1
  Nb  Nb6  1  0.23228500  0.00000000  0.25129300  1
  Nb  Nb7  1  0.76771500  0.76771500  0.74870700  1
  Nb  Nb8  1  0.00000000  0.23228500  0.74870700  1
  Nb  Nb9  1  0.00000000  0.23228500  0.25129300  1
  Nb  Nb10  1  0.76771500  0.76771500  0.25129300  1
  Nb  Nb11  1  0.23228500  0.00000000  0.74870700  1
  Ge  Ge12  1  0.33333300  0.66666700  0.22282200  1
  Ge  Ge13  1  0.33333300  0.66666700  0.77717800  1
  Ge  Ge14  1  0.66666700  0.33333300  0.77717800  1
  Ge  Ge15  1  0.66666700  0.33333300  0.22282200  1
  O  O16  1  0.33333300  0.66666700  0.00000000  1
  O  O17  1  0.66666700  0.33333300  0.00000000  1
  O  O18  1  0.27063400  0.00000000  0.00000000  1
  O  O19  1  0.72936600  0.72936600  0.00000000  1
  O  O20  1  0.00000000  0.27063400  0.00000000  1
  O  O21  1  0.82819600  0.00000000  0.22781600  1
  O  O22  1  0.17180400  0.17180400  0.77218400  1
  O  O23  1  0.00000000  0.82819600  0.77218400  1
  O  O24  1  0.00000000  0.82819600  0.22781600  1
  O  O25  1  0.17180400  0.17180400  0.22781600  1
  O  O26  1  0.82819600  0.00000000  0.77218400  1
  O  O27  1  0.47486900  0.17754100  0.28746300  1
  O  O28  1  0.70267200  0.52513100  0.71253700  1
  O  O29  1  0.82245900  0.29732800  0.71253700  1
  O  O30  1  0.82245900  0.29732800  0.28746300  1
  O  O31  1  0.70267200  0.52513100  0.28746300  1
  O  O32  1  0.29732800  0.82245900  0.71253700  1
  O  O33  1  0.52513100  0.70267200  0.71253700  1
  O  O34  1  0.17754100  0.47486900  0.71253700  1
  O  O35  1  0.47486900  0.17754100  0.71253700  1
  O  O36  1  0.17754100  0.47486900  0.28746300  1
  O  O37  1  0.29732800  0.82245900  0.28746300  1
  O  O38  1  0.52513100  0.70267200  0.28746300  1
  O  O39  1  0.21300000  0.00000000  0.50000000  1
  O  O40  1  0.78700000  0.78700000  0.50000000  1
  O  O41  1  0.00000000  0.21300000  0.50000000  1
