# generated using pymatgen
data_Na(OsO3)2
_symmetry_space_group_name_H-M   'P 1'
_cell_length_a   7.20794247
_cell_length_b   7.20794247
_cell_length_c   7.20794247
_cell_angle_alpha   60.00000000
_cell_angle_beta   60.00000000
_cell_angle_gamma   60.00000000
_symmetry_Int_Tables_number   1
_chemical_formula_structural   Na(OsO3)2
_chemical_formula_sum   'Na2 Os4 O12'
_cell_volume   264.80058332
_cell_formula_units_Z   2
loop_
 _symmetry_equiv_pos_site_id
 _symmetry_equiv_pos_as_xyz
  1  'x, y, z'
loop_
 _atom_site_type_symbol
 _atom_site_label
 _atom_site_symmetry_multiplicity
 _atom_site_fract_x
 _atom_site_fract_y
 _atom_site_fract_z
 _atom_site_occupancy
  Na  Na0  1  0.00000000  0.00000000  0.00000000  1
  Na  Na1  1  0.25000000  0.25000000  0.25000000  1
  Os  Os2  1  0.62500000  0.12500000  0.62500000  1
  Os  Os3  1  0.12500000  0.62500000  0.62500000  1
  Os  Os4  1  0.62500000  0.62500000  0.12500000  1
  Os  Os5  1  0.62500000  0.62500000  0.62500000  1
  O  O6  1  0.69157400  0.30842600  0.30842600  1
  O  O7  1  0.30842600  0.69157400  0.69157400  1
  O  O8  1  0.30842600  0.30842600  0.69157400  1
  O  O9  1  0.30842600  0.69157400  0.30842600  1
  O  O10  1  0.94157400  0.55842600  0.55842600  1
  O  O11  1  0.55842600  0.94157400  0.55842600  1
  O  O12  1  0.69157400  0.69157400  0.30842600  1
  O  O13  1  0.55842600  0.94157400  0.94157400  1
  O  O14  1  0.55842600  0.55842600  0.94157400  1
  O  O15  1  0.94157400  0.55842600  0.94157400  1
  O  O16  1  0.69157400  0.30842600  0.69157400  1
  O  O17  1  0.94157400  0.94157400  0.55842600  1
