# generated using pymatgen
data_Ba3In(BO2)9
_symmetry_space_group_name_H-M   'P 1'
_cell_length_a   7.23343794
_cell_length_b   7.23343794
_cell_length_c   17.14814600
_cell_angle_alpha   90.00000000
_cell_angle_beta   90.00000000
_cell_angle_gamma   119.99999949
_symmetry_Int_Tables_number   1
_chemical_formula_structural   Ba3In(BO2)9
_chemical_formula_sum   'Ba6 In2 B18 O36'
_cell_volume   777.02917653
_cell_formula_units_Z   2
loop_
 _symmetry_equiv_pos_site_id
 _symmetry_equiv_pos_as_xyz
  1  'x, y, z'
loop_
 _atom_site_type_symbol
 _atom_site_label
 _atom_site_symmetry_multiplicity
 _atom_site_fract_x
 _atom_site_fract_y
 _atom_site_fract_z
 _atom_site_occupancy
  Ba  Ba0  1  0.33333300  0.66666700  0.37004000  1
  Ba  Ba1  1  0.33333300  0.66666700  0.12996000  1
  Ba  Ba2  1  0.66666700  0.33333300  0.62996000  1
  Ba  Ba3  1  0.66666700  0.33333300  0.87004000  1
  Ba  Ba4  1  0.00000000  0.00000000  0.25000000  1
  Ba  Ba5  1  0.00000000  0.00000000  0.75000000  1
  In  In6  1  0.00000000  0.00000000  0.00000000  1
  In  In7  1  0.00000000  0.00000000  0.50000000  1
  B  B8  1  0.72066400  0.16739200  0.07818700  1
  B  B9  1  0.27933600  0.83260800  0.57818700  1
  B  B10  1  0.50540000  0.88379200  0.75000000  1
  B  B11  1  0.55327200  0.72066400  0.92181300  1
  B  B12  1  0.44672800  0.27933600  0.42181300  1
  B  B13  1  0.83260800  0.55327200  0.42181300  1
  B  B14  1  0.49460000  0.11620800  0.25000000  1
  B  B15  1  0.37839200  0.49460000  0.75000000  1
  B  B16  1  0.16739200  0.44672800  0.57818700  1
  B  B17  1  0.88379200  0.37839200  0.25000000  1
  B  B18  1  0.44672800  0.27933600  0.07818700  1
  B  B19  1  0.27933600  0.83260800  0.92181300  1
  B  B20  1  0.72066400  0.16739200  0.42181300  1
  B  B21  1  0.11620800  0.62160800  0.75000000  1
  B  B22  1  0.62160800  0.50540000  0.25000000  1
  B  B23  1  0.83260800  0.55327200  0.07818700  1
  B  B24  1  0.55327200  0.72066400  0.57818700  1
  B  B25  1  0.16739200  0.44672800  0.92181300  1
  O  O26  1  0.16640200  0.45694400  0.75000000  1
  O  O27  1  0.61525500  0.49422300  0.42127700  1
  O  O28  1  0.41375000  0.33123800  0.75000000  1
  O  O29  1  0.24524800  0.23930500  0.42225000  1
  O  O30  1  0.50577700  0.12103200  0.42127700  1
  O  O31  1  0.33123800  0.91748900  0.25000000  1
  O  O32  1  0.50577700  0.12103200  0.07872300  1
  O  O33  1  0.12103200  0.61525500  0.92127700  1
  O  O34  1  0.83359800  0.54305600  0.25000000  1
  O  O35  1  0.75475200  0.76069500  0.57775000  1
  O  O36  1  0.23930500  0.99405700  0.92225000  1
  O  O37  1  0.00594300  0.24524800  0.57775000  1
  O  O38  1  0.49422300  0.87896800  0.92127700  1
  O  O39  1  0.99405700  0.75475200  0.42225000  1
  O  O40  1  0.54305600  0.70945800  0.75000000  1
  O  O41  1  0.38474500  0.50577700  0.92127700  1
  O  O42  1  0.76069500  0.00594300  0.07775000  1
  O  O43  1  0.38474500  0.50577700  0.57872300  1
  O  O44  1  0.87896800  0.38474500  0.07872300  1
  O  O45  1  0.99405700  0.75475200  0.07775000  1
  O  O46  1  0.61525500  0.49422300  0.07872300  1
  O  O47  1  0.49422300  0.87896800  0.57872300  1
  O  O48  1  0.70945800  0.16640200  0.25000000  1
  O  O49  1  0.08251100  0.41375000  0.25000000  1
  O  O50  1  0.23930500  0.99405700  0.57775000  1
  O  O51  1  0.91748900  0.58625000  0.75000000  1
  O  O52  1  0.29054200  0.83359800  0.75000000  1
  O  O53  1  0.45694400  0.29054200  0.25000000  1
  O  O54  1  0.87896800  0.38474500  0.42127700  1
  O  O55  1  0.12103200  0.61525500  0.57872300  1
  O  O56  1  0.58625000  0.66876200  0.25000000  1
  O  O57  1  0.76069500  0.00594300  0.42225000  1
  O  O58  1  0.66876200  0.08251100  0.75000000  1
  O  O59  1  0.00594300  0.24524800  0.92225000  1
  O  O60  1  0.24524800  0.23930500  0.07775000  1
  O  O61  1  0.75475200  0.76069500  0.92225000  1
