# generated using pymatgen
data_Yb4As3
_symmetry_space_group_name_H-M   'P 1'
_cell_length_a   7.69178995
_cell_length_b   7.69178995
_cell_length_c   7.69178995
_cell_angle_alpha   109.47122063
_cell_angle_beta   109.47122063
_cell_angle_gamma   109.47122063
_symmetry_Int_Tables_number   1
_chemical_formula_structural   Yb4As3
_chemical_formula_sum   'Yb8 As6'
_cell_volume   350.31630980
_cell_formula_units_Z   2
loop_
 _symmetry_equiv_pos_site_id
 _symmetry_equiv_pos_as_xyz
  1  'x, y, z'
loop_
 _atom_site_type_symbol
 _atom_site_label
 _atom_site_symmetry_multiplicity
 _atom_site_fract_x
 _atom_site_fract_y
 _atom_site_fract_z
 _atom_site_occupancy
  Yb  Yb0  1  0.14379900  0.50000000  0.00000000  1
  Yb  Yb1  1  0.50000000  0.00000000  0.64379900  1
  Yb  Yb2  1  0.35620100  0.35620100  0.35620100  1
  Yb  Yb3  1  0.00000000  0.14379900  0.50000000  1
  Yb  Yb4  1  0.85620100  0.85620100  0.85620100  1
  Yb  Yb5  1  0.00000000  0.64379900  0.50000000  1
  Yb  Yb6  1  0.64379900  0.50000000  0.00000000  1
  Yb  Yb7  1  0.50000000  0.00000000  0.14379900  1
  As  As8  1  0.87500000  0.25000000  0.12500000  1
  As  As9  1  0.12500000  0.87500000  0.25000000  1
  As  As10  1  0.37500000  0.62500000  0.75000000  1
  As  As11  1  0.25000000  0.12500000  0.87500000  1
  As  As12  1  0.75000000  0.37500000  0.62500000  1
  As  As13  1  0.62500000  0.75000000  0.37500000  1
