# generated using pymatgen
data_Ba3Mg(SiO4)2
_symmetry_space_group_name_H-M   'P 1'
_cell_length_a   9.84980085
_cell_length_b   9.84980085
_cell_length_c   7.37326200
_cell_angle_alpha   90.00000000
_cell_angle_beta   90.00000000
_cell_angle_gamma   120.00000569
_symmetry_Int_Tables_number   1
_chemical_formula_structural   Ba3Mg(SiO4)2
_chemical_formula_sum   'Ba9 Mg3 Si6 O24'
_cell_volume   619.50550836
_cell_formula_units_Z   3
loop_
 _symmetry_equiv_pos_site_id
 _symmetry_equiv_pos_as_xyz
  1  'x, y, z'
loop_
 _atom_site_type_symbol
 _atom_site_label
 _atom_site_symmetry_multiplicity
 _atom_site_fract_x
 _atom_site_fract_y
 _atom_site_fract_z
 _atom_site_occupancy
  Ba  Ba0  1  0.66771100  0.00238500  0.17801100  1
  Ba  Ba1  1  0.99761500  0.66532600  0.17801100  1
  Ba  Ba2  1  0.33467400  0.33228900  0.17801100  1
  Ba  Ba3  1  0.33228900  0.99761500  0.82198900  1
  Ba  Ba4  1  0.00238500  0.33467400  0.82198900  1
  Ba  Ba5  1  0.66532600  0.66771100  0.82198900  1
  Ba  Ba6  1  0.66666700  0.33333300  0.50407500  1
  Ba  Ba7  1  0.33333300  0.66666700  0.49592500  1
  Ba  Ba8  1  0.00000000  0.00000000  0.50000000  1
  Mg  Mg9  1  0.66666700  0.33333300  0.01144600  1
  Mg  Mg10  1  0.33333300  0.66666700  0.98855400  1
  Mg  Mg11  1  0.00000000  0.00000000  0.00000000  1
  Si  Si12  1  0.66295800  0.67132400  0.25890200  1
  Si  Si13  1  0.32867600  0.99163400  0.25890200  1
  Si  Si14  1  0.00836600  0.33704200  0.25890200  1
  Si  Si15  1  0.33704200  0.32867600  0.74109800  1
  Si  Si16  1  0.67132400  0.00836600  0.74109800  1
  Si  Si17  1  0.99163400  0.66295800  0.74109800  1
  O  O18  1  0.99967500  0.17457500  0.17709700  1
  O  O19  1  0.82542500  0.82509900  0.17709700  1
  O  O20  1  0.17490100  0.00032500  0.17709700  1
  O  O21  1  0.00032500  0.82542500  0.82290300  1
  O  O22  1  0.17457500  0.17490100  0.82290300  1
  O  O23  1  0.82509900  0.99967500  0.82290300  1
  O  O24  1  0.84434600  0.33373400  0.19588600  1
  O  O25  1  0.66626600  0.51061200  0.19588600  1
  O  O26  1  0.48938800  0.15565400  0.19588600  1
  O  O27  1  0.15565400  0.66626600  0.80411400  1
  O  O28  1  0.33373400  0.48938800  0.80411400  1
  O  O29  1  0.51061200  0.84434600  0.80411400  1
  O  O30  1  0.64544400  0.68797100  0.47530000  1
  O  O31  1  0.31202900  0.95747200  0.47530000  1
  O  O32  1  0.04252800  0.35455600  0.47530000  1
  O  O33  1  0.35455600  0.31202900  0.52470000  1
  O  O34  1  0.68797100  0.04252800  0.52470000  1
  O  O35  1  0.95747200  0.64544400  0.52470000  1
  O  O36  1  0.50989700  0.66710300  0.15495400  1
  O  O37  1  0.33289700  0.84279500  0.15495400  1
  O  O38  1  0.15720500  0.49010300  0.15495400  1
  O  O39  1  0.49010300  0.33289700  0.84504600  1
  O  O40  1  0.66710300  0.15720500  0.84504600  1
  O  O41  1  0.84279500  0.50989700  0.84504600  1
