# generated using pymatgen
data_K2YNb5O15
_symmetry_space_group_name_H-M   'P 1'
_cell_length_a   9.35185659
_cell_length_b   9.35185659
_cell_length_c   3.97510100
_cell_angle_alpha   90.00000000
_cell_angle_beta   90.00000000
_cell_angle_gamma   111.88706881
_symmetry_Int_Tables_number   1
_chemical_formula_structural   K2YNb5O15
_chemical_formula_sum   'K2 Y1 Nb5 O15'
_cell_volume   322.59272693
_cell_formula_units_Z   1
loop_
 _symmetry_equiv_pos_site_id
 _symmetry_equiv_pos_as_xyz
  1  'x, y, z'
loop_
 _atom_site_type_symbol
 _atom_site_label
 _atom_site_symmetry_multiplicity
 _atom_site_fract_x
 _atom_site_fract_y
 _atom_site_fract_z
 _atom_site_occupancy
  K  K0  1  0.29805700  0.70194300  0.00000000  1
  K  K1  1  0.70194300  0.29805700  0.00000000  1
  Y  Y2  1  0.00000000  0.00000000  0.00000000  1
  Nb  Nb3  1  0.31833000  0.05939100  0.50000000  1
  Nb  Nb4  1  0.05939100  0.31833000  0.50000000  1
  Nb  Nb5  1  0.68167000  0.94060900  0.50000000  1
  Nb  Nb6  1  0.94060900  0.68167000  0.50000000  1
  Nb  Nb7  1  0.50000000  0.50000000  0.50000000  1
  O  O8  1  0.12732500  0.12732500  0.50000000  1
  O  O9  1  0.16139300  0.83860700  0.50000000  1
  O  O10  1  0.27273700  0.45758900  0.50000000  1
  O  O11  1  0.83860700  0.16139300  0.50000000  1
  O  O12  1  0.87267500  0.87267500  0.50000000  1
  O  O13  1  0.27929500  0.04757900  0.00000000  1
  O  O14  1  0.72070500  0.95242100  0.00000000  1
  O  O15  1  0.54241100  0.72726300  0.50000000  1
  O  O16  1  0.04757900  0.27929500  0.00000000  1
  O  O17  1  0.50000000  0.00000000  0.50000000  1
  O  O18  1  0.45758900  0.27273700  0.50000000  1
  O  O19  1  0.95242100  0.72070500  0.00000000  1
  O  O20  1  0.50000000  0.50000000  0.00000000  1
  O  O21  1  0.72726300  0.54241100  0.50000000  1
  O  O22  1  0.00000000  0.50000000  0.50000000  1
