# generated using pymatgen
data_K4Nb2S10O
_symmetry_space_group_name_H-M   'P 1'
_cell_length_a   7.68215300
_cell_length_b   12.93657000
_cell_length_c   18.15251500
_cell_angle_alpha   90.00000000
_cell_angle_beta   90.00000000
_cell_angle_gamma   90.00000000
_symmetry_Int_Tables_number   1
_chemical_formula_structural   K4Nb2S10O
_chemical_formula_sum   'K16 Nb8 S40 O4'
_cell_volume   1804.00982962
_cell_formula_units_Z   4
loop_
 _symmetry_equiv_pos_site_id
 _symmetry_equiv_pos_as_xyz
  1  'x, y, z'
loop_
 _atom_site_type_symbol
 _atom_site_label
 _atom_site_symmetry_multiplicity
 _atom_site_fract_x
 _atom_site_fract_y
 _atom_site_fract_z
 _atom_site_occupancy
  K  K0  1  0.78906200  0.93999100  0.83516300  1
  K  K1  1  0.85646700  0.90240300  0.53555800  1
  K  K2  1  0.21093800  0.43999100  0.83516300  1
  K  K3  1  0.85646700  0.59759700  0.03555800  1
  K  K4  1  0.21093800  0.06000900  0.33516300  1
  K  K5  1  0.14353300  0.40240300  0.53555800  1
  K  K6  1  0.81387900  0.24015300  0.20023000  1
  K  K7  1  0.14353300  0.09759700  0.03555800  1
  K  K8  1  0.66758700  0.23512700  0.96826900  1
  K  K9  1  0.18612100  0.75984700  0.70023000  1
  K  K10  1  0.78906200  0.56000900  0.33516300  1
  K  K11  1  0.81387900  0.25984700  0.70023000  1
  K  K12  1  0.66758700  0.26487300  0.46826900  1
  K  K13  1  0.18612100  0.74015300  0.20023000  1
  K  K14  1  0.33241300  0.76487300  0.46826900  1
  K  K15  1  0.33241300  0.73512700  0.96826900  1
  Nb  Nb16  1  0.74249400  0.96306500  0.10458000  1
  Nb  Nb17  1  0.25750600  0.03693500  0.60458000  1
  Nb  Nb18  1  0.21446500  0.39840600  0.29418000  1
  Nb  Nb19  1  0.74249400  0.53693500  0.60458000  1
  Nb  Nb20  1  0.21446500  0.10159400  0.79418000  1
  Nb  Nb21  1  0.78553500  0.89840600  0.29418000  1
  Nb  Nb22  1  0.25750600  0.46306500  0.10458000  1
  Nb  Nb23  1  0.78553500  0.60159400  0.79418000  1
  S  S24  1  0.02636500  0.35082600  0.04927100  1
  S  S25  1  0.75238100  0.77209200  0.19028000  1
  S  S26  1  0.25032700  0.93031300  0.85255900  1
  S  S27  1  0.53754100  0.48927400  0.70590900  1
  S  S28  1  0.57665200  0.43617800  0.11640700  1
  S  S29  1  0.26643300  0.34033100  0.99664300  1
  S  S30  1  0.46245900  0.51072600  0.20590900  1
  S  S31  1  0.75238100  0.72790800  0.69028000  1
  S  S32  1  0.03042900  0.49559600  0.20237900  1
  S  S33  1  0.97363500  0.85082600  0.04927100  1
  S  S34  1  0.46245900  0.98927400  0.70590900  1
  S  S35  1  0.99301700  0.17340300  0.85966200  1
  S  S36  1  0.24761900  0.27209200  0.19028000  1
  S  S37  1  0.57665200  0.06382200  0.61640700  1
  S  S38  1  0.42556900  0.24205300  0.77591000  1
  S  S39  1  0.59007700  0.54383700  0.89776500  1
  S  S40  1  0.03042900  0.00440400  0.70237900  1
  S  S41  1  0.96957100  0.99559600  0.20237900  1
  S  S42  1  0.24761900  0.22790800  0.69028000  1
  S  S43  1  0.00698300  0.82659700  0.35966200  1
  S  S44  1  0.42334800  0.56382200  0.61640700  1
  S  S45  1  0.02636500  0.14917400  0.54927100  1
  S  S46  1  0.99301700  0.32659700  0.35966200  1
  S  S47  1  0.00698300  0.67340300  0.85966200  1
  S  S48  1  0.42556900  0.25794700  0.27591000  1
  S  S49  1  0.74967300  0.43031300  0.85255900  1
  S  S50  1  0.97363500  0.64917400  0.54927100  1
  S  S51  1  0.42334800  0.93617800  0.11640700  1
  S  S52  1  0.96957100  0.50440400  0.70237900  1
  S  S53  1  0.57443100  0.75794700  0.27591000  1
  S  S54  1  0.73356700  0.84033100  0.99664300  1
  S  S55  1  0.53754100  0.01072600  0.20590900  1
  S  S56  1  0.26643300  0.15966900  0.49664300  1
  S  S57  1  0.40992300  0.45616300  0.39776500  1
  S  S58  1  0.57443100  0.74205300  0.77591000  1
  S  S59  1  0.59007700  0.95616300  0.39776500  1
  S  S60  1  0.40992300  0.04383700  0.89776500  1
  S  S61  1  0.25032700  0.56968700  0.35255900  1
  S  S62  1  0.74967300  0.06968700  0.35255900  1
  S  S63  1  0.73356700  0.65966900  0.49664300  1
  O  O64  1  0.77194800  0.41615300  0.55728400  1
  O  O65  1  0.77194800  0.08384700  0.05728400  1
  O  O66  1  0.22805200  0.91615300  0.55728400  1
  O  O67  1  0.22805200  0.58384700  0.05728400  1
