# generated using pymatgen
data_K3Nb3Si2O13
_symmetry_space_group_name_H-M   'P 1'
_cell_length_a   9.24658208
_cell_length_b   9.24658208
_cell_length_c   7.96645600
_cell_angle_alpha   90.00000000
_cell_angle_beta   90.00000000
_cell_angle_gamma   120.00000056
_symmetry_Int_Tables_number   1
_chemical_formula_structural   K3Nb3Si2O13
_chemical_formula_sum   'K6 Nb6 Si4 O26'
_cell_volume   589.87263508
_cell_formula_units_Z   2
loop_
 _symmetry_equiv_pos_site_id
 _symmetry_equiv_pos_as_xyz
  1  'x, y, z'
loop_
 _atom_site_type_symbol
 _atom_site_label
 _atom_site_symmetry_multiplicity
 _atom_site_fract_x
 _atom_site_fract_y
 _atom_site_fract_z
 _atom_site_occupancy
  K  K0  1  0.38383100  0.96771600  0.25000000  1
  K  K1  1  0.61616900  0.58388500  0.75000000  1
  K  K2  1  0.03228400  0.41611500  0.25000000  1
  K  K3  1  0.58388500  0.61616900  0.25000000  1
  K  K4  1  0.41611500  0.03228400  0.75000000  1
  K  K5  1  0.96771600  0.38383100  0.75000000  1
  Nb  Nb6  1  0.76180000  0.00000000  0.50000000  1
  Nb  Nb7  1  0.76180000  0.00000000  0.00000000  1
  Nb  Nb8  1  0.23820000  0.23820000  0.00000000  1
  Nb  Nb9  1  0.23820000  0.23820000  0.50000000  1
  Nb  Nb10  1  0.00000000  0.76180000  0.50000000  1
  Nb  Nb11  1  0.00000000  0.76180000  0.00000000  1
  Si  Si12  1  0.33333300  0.66666700  0.95531500  1
  Si  Si13  1  0.66666700  0.33333300  0.04468500  1
  Si  Si14  1  0.66666700  0.33333300  0.45531500  1
  Si  Si15  1  0.33333300  0.66666700  0.54468500  1
  O  O16  1  0.48835400  0.30743700  0.98028400  1
  O  O17  1  0.98879800  0.74308000  0.25000000  1
  O  O18  1  0.01120200  0.75428100  0.75000000  1
  O  O19  1  0.74308000  0.98879800  0.75000000  1
  O  O20  1  0.75428100  0.01120200  0.25000000  1
  O  O21  1  0.51164600  0.81908300  0.48028400  1
  O  O22  1  0.18091700  0.69256300  0.01971600  1
  O  O23  1  0.24571900  0.25692000  0.75000000  1
  O  O24  1  0.81908300  0.51164600  0.98028400  1
  O  O25  1  0.69256300  0.18091700  0.51971600  1
  O  O26  1  0.82476100  0.82476100  0.50000000  1
  O  O27  1  0.82476100  0.82476100  0.00000000  1
  O  O28  1  0.69256300  0.18091700  0.98028400  1
  O  O29  1  0.25692000  0.24571900  0.25000000  1
  O  O30  1  0.81908300  0.51164600  0.51971600  1
  O  O31  1  0.30743700  0.48835400  0.01971600  1
  O  O32  1  0.51164600  0.81908300  0.01971600  1
  O  O33  1  0.30743700  0.48835400  0.48028400  1
  O  O34  1  0.17523900  0.00000000  0.50000000  1
  O  O35  1  0.18091700  0.69256300  0.48028400  1
  O  O36  1  0.66666700  0.33333300  0.25000000  1
  O  O37  1  0.00000000  0.17523900  0.50000000  1
  O  O38  1  0.48835400  0.30743700  0.51971600  1
  O  O39  1  0.00000000  0.17523900  0.00000000  1
  O  O40  1  0.17523900  0.00000000  0.00000000  1
  O  O41  1  0.33333300  0.66666700  0.75000000  1
