# generated using pymatgen
data_SeO2
_symmetry_space_group_name_H-M   'P 1'
_cell_length_a   4.66273300
_cell_length_b   5.21633500
_cell_length_c   7.93591800
_cell_angle_alpha   90.00000000
_cell_angle_beta   90.00000000
_cell_angle_gamma   90.00000000
_symmetry_Int_Tables_number   1
_chemical_formula_structural   SeO2
_chemical_formula_sum   'Se4 O8'
_cell_volume   193.02039216
_cell_formula_units_Z   4
loop_
 _symmetry_equiv_pos_site_id
 _symmetry_equiv_pos_as_xyz
  1  'x, y, z'
loop_
 _atom_site_type_symbol
 _atom_site_label
 _atom_site_symmetry_multiplicity
 _atom_site_fract_x
 _atom_site_fract_y
 _atom_site_fract_z
 _atom_site_occupancy
  Se  Se0  1  0.74729800  0.50000000  0.99566500  1
  Se  Se1  1  0.88461700  0.00000000  0.37179800  1
  Se  Se2  1  0.25270200  0.50000000  0.49566500  1
  Se  Se3  1  0.11538300  0.00000000  0.87179800  1
  O  O4  1  0.24097600  0.00000000  0.67742900  1
  O  O5  1  0.15540600  0.25107200  0.34109700  1
  O  O6  1  0.84459400  0.25107200  0.84109700  1
  O  O7  1  0.60089800  0.50000000  0.46271300  1
  O  O8  1  0.39910200  0.50000000  0.96271300  1
  O  O9  1  0.15540600  0.74892800  0.34109700  1
  O  O10  1  0.75902400  0.00000000  0.17742900  1
  O  O11  1  0.84459400  0.74892800  0.84109700  1
