# generated using pymatgen
data_BaBi4(BrO3)2
_symmetry_space_group_name_H-M   'P 1'
_cell_length_a   17.10973905
_cell_length_b   17.10973905
_cell_length_c   17.10973905
_cell_angle_alpha   166.48078694
_cell_angle_beta   166.48078694
_cell_angle_gamma   19.16393863
_symmetry_Int_Tables_number   1
_chemical_formula_structural   BaBi4(BrO3)2
_chemical_formula_sum   'Ba1 Bi4 Br2 O6'
_cell_volume   273.69704733
_cell_formula_units_Z   1
loop_
 _symmetry_equiv_pos_site_id
 _symmetry_equiv_pos_as_xyz
  1  'x, y, z'
loop_
 _atom_site_type_symbol
 _atom_site_label
 _atom_site_symmetry_multiplicity
 _atom_site_fract_x
 _atom_site_fract_y
 _atom_site_fract_z
 _atom_site_occupancy
  Ba  Ba0  1  0.50000000  0.50000000  0.00000000  1
  Bi  Bi1  1  0.08369300  0.08369300  0.00000000  1
  Bi  Bi2  1  0.91630700  0.91630700  0.00000000  1
  Bi  Bi3  1  0.78625000  0.78625000  0.00000000  1
  Bi  Bi4  1  0.21375000  0.21375000  0.00000000  1
  Br  Br5  1  0.33314100  0.33314100  0.00000000  1
  Br  Br6  1  0.66685900  0.66685900  0.00000000  1
  O  O7  1  0.44432400  0.94432400  0.50000000  1
  O  O8  1  0.55567600  0.05567600  0.50000000  1
  O  O9  1  0.05567600  0.55567600  0.50000000  1
  O  O10  1  0.94432400  0.44432400  0.50000000  1
  O  O11  1  0.75000000  0.25000000  0.50000000  1
  O  O12  1  0.25000000  0.75000000  0.50000000  1
