# generated using pymatgen
data_UB2C
_symmetry_space_group_name_H-M   'P 1'
_cell_length_a   5.19551882
_cell_length_b   5.19551882
_cell_length_c   5.19551857
_cell_angle_alpha   78.11206152
_cell_angle_beta   78.11206152
_cell_angle_gamma   78.11206436
_symmetry_Int_Tables_number   1
_chemical_formula_structural   UB2C
_chemical_formula_sum   'U3 B6 C3'
_cell_volume   132.31986025
_cell_formula_units_Z   3
loop_
 _symmetry_equiv_pos_site_id
 _symmetry_equiv_pos_as_xyz
  1  'x, y, z'
loop_
 _atom_site_type_symbol
 _atom_site_label
 _atom_site_symmetry_multiplicity
 _atom_site_fract_x
 _atom_site_fract_y
 _atom_site_fract_z
 _atom_site_occupancy
  U  U0  1  0.68975400  0.68975400  0.68975400  1
  U  U1  1  0.31024600  0.31024600  0.31024600  1
  U  U2  1  0.00000000  0.00000000  0.00000000  1
  B  B3  1  0.77105300  0.22894700  0.50000000  1
  B  B4  1  0.22894700  0.50000000  0.77105300  1
  B  B5  1  0.50000000  0.77105300  0.22894700  1
  B  B6  1  0.22894700  0.77105300  0.50000000  1
  B  B7  1  0.77105300  0.50000000  0.22894700  1
  B  B8  1  0.50000000  0.22894700  0.77105300  1
  C  C9  1  0.50000000  0.00000000  0.00000000  1
  C  C10  1  0.00000000  0.50000000  0.00000000  1
  C  C11  1  0.00000000  0.00000000  0.50000000  1
