# generated using pymatgen
data_YbP5
_symmetry_space_group_name_H-M   'P 1'
_cell_length_a   16.65265400
_cell_length_b   5.52402400
_cell_length_c   5.60711359
_cell_angle_alpha   76.45928213
_cell_angle_beta   90.00000000
_cell_angle_gamma   90.00000000
_symmetry_Int_Tables_number   1
_chemical_formula_structural   YbP5
_chemical_formula_sum   'Yb4 P20'
_cell_volume   501.45927996
_cell_formula_units_Z   4
loop_
 _symmetry_equiv_pos_site_id
 _symmetry_equiv_pos_as_xyz
  1  'x, y, z'
loop_
 _atom_site_type_symbol
 _atom_site_label
 _atom_site_symmetry_multiplicity
 _atom_site_fract_x
 _atom_site_fract_y
 _atom_site_fract_z
 _atom_site_occupancy
  Yb  Yb0  1  0.49090200  0.11964400  0.97352200  1
  Yb  Yb1  1  0.26254500  0.42199200  0.01857200  1
  Yb  Yb2  1  0.99090200  0.88035600  0.02647800  1
  Yb  Yb3  1  0.76254500  0.57800800  0.98142800  1
  P  P4  1  0.67115200  0.83377200  0.29131300  1
  P  P5  1  0.13539500  0.78750900  0.73803200  1
  P  P6  1  0.32060200  0.79086800  0.57229200  1
  P  P7  1  0.25845200  0.87027300  0.21707600  1
  P  P8  1  0.13519000  0.77334500  0.34594800  1
  P  P9  1  0.17115200  0.16622800  0.70868700  1
  P  P10  1  0.93719900  0.28480900  0.58514600  1
  P  P11  1  0.12789400  0.37310500  0.34382300  1
  P  P12  1  0.50373600  0.67174900  0.76133900  1
  P  P13  1  0.63539500  0.21249100  0.26196800  1
  P  P14  1  0.40594300  0.34848900  0.34123000  1
  P  P15  1  0.90594300  0.65151100  0.65877000  1
  P  P16  1  0.43719900  0.71519100  0.41485400  1
  P  P17  1  0.63519000  0.22665500  0.65405200  1
  P  P18  1  0.62789400  0.62689500  0.65617700  1
  P  P19  1  0.82060200  0.20913200  0.42770800  1
  P  P20  1  0.33689000  0.16302300  0.65831800  1
  P  P21  1  0.75845200  0.12972700  0.78292400  1
  P  P22  1  0.83689000  0.83697700  0.34168200  1
  P  P23  1  0.00373600  0.32825100  0.23866100  1
