# generated using pymatgen
data_YbHgPb
_symmetry_space_group_name_H-M   'P 1'
_cell_length_a   5.12482420
_cell_length_b   5.12482420
_cell_length_c   7.38209000
_cell_angle_alpha   90.00000000
_cell_angle_beta   90.00000000
_cell_angle_gamma   120.00000253
_symmetry_Int_Tables_number   1
_chemical_formula_structural   YbHgPb
_chemical_formula_sum   'Yb2 Hg2 Pb2'
_cell_volume   167.90665114
_cell_formula_units_Z   2
loop_
 _symmetry_equiv_pos_site_id
 _symmetry_equiv_pos_as_xyz
  1  'x, y, z'
loop_
 _atom_site_type_symbol
 _atom_site_label
 _atom_site_symmetry_multiplicity
 _atom_site_fract_x
 _atom_site_fract_y
 _atom_site_fract_z
 _atom_site_occupancy
  Yb  Yb0  1  0.00000000  0.00000000  0.00000000  1
  Yb  Yb1  1  0.00000000  0.00000000  0.50000000  1
  Hg  Hg2  1  0.33333300  0.66666700  0.25000000  1
  Hg  Hg3  1  0.66666700  0.33333300  0.75000000  1
  Pb  Pb4  1  0.66666700  0.33333300  0.25000000  1
  Pb  Pb5  1  0.33333300  0.66666700  0.75000000  1
