# generated using pymatgen
data_RbBiF4
_symmetry_space_group_name_H-M   'P 1'
_cell_length_a   8.53611669
_cell_length_b   8.53611669
_cell_length_c   8.53611669
_cell_angle_alpha   60.00000000
_cell_angle_beta   60.00000000
_cell_angle_gamma   60.00000000
_symmetry_Int_Tables_number   1
_chemical_formula_structural   RbBiF4
_chemical_formula_sum   'Rb4 Bi4 F16'
_cell_volume   439.81094503
_cell_formula_units_Z   4
loop_
 _symmetry_equiv_pos_site_id
 _symmetry_equiv_pos_as_xyz
  1  'x, y, z'
loop_
 _atom_site_type_symbol
 _atom_site_label
 _atom_site_symmetry_multiplicity
 _atom_site_fract_x
 _atom_site_fract_y
 _atom_site_fract_z
 _atom_site_occupancy
  Rb  Rb0  1  0.62500000  0.62500000  0.12500000  1
  Rb  Rb1  1  0.62500000  0.62500000  0.62500000  1
  Rb  Rb2  1  0.62500000  0.12500000  0.62500000  1
  Rb  Rb3  1  0.12500000  0.62500000  0.62500000  1
  Bi  Bi4  1  0.62500000  0.12500000  0.12500000  1
  Bi  Bi5  1  0.12500000  0.62500000  0.12500000  1
  Bi  Bi6  1  0.12500000  0.12500000  0.12500000  1
  Bi  Bi7  1  0.12500000  0.12500000  0.62500000  1
  F  F8  1  0.46262600  0.46262600  0.03737400  1
  F  F9  1  0.03737400  0.46262600  0.03737400  1
  F  F10  1  0.21262600  0.21262600  0.78737400  1
  F  F11  1  0.78737400  0.21262600  0.21262600  1
  F  F12  1  0.46262600  0.03737400  0.46262600  1
  F  F13  1  0.78737400  0.78737400  0.21262600  1
  F  F14  1  0.46262600  0.03737400  0.03737400  1
  F  F15  1  0.75000000  0.75000000  0.75000000  1
  F  F16  1  0.78737400  0.21262600  0.78737400  1
  F  F17  1  0.21262600  0.78737400  0.78737400  1
  F  F18  1  0.50000000  0.50000000  0.50000000  1
  F  F19  1  0.03737400  0.03737400  0.46262600  1
  F  F20  1  0.25000000  0.25000000  0.25000000  1
  F  F21  1  0.21262600  0.78737400  0.21262600  1
  F  F22  1  0.03737400  0.46262600  0.46262600  1
  F  F23  1  0.00000000  0.00000000  0.00000000  1
