# generated using pymatgen
data_Zn(InS2)2
_symmetry_space_group_name_H-M   'P 1'
_cell_length_a   25.31258400
_cell_length_b   25.31258400
_cell_length_c   25.31258441
_cell_angle_alpha   8.90736226
_cell_angle_beta   8.90736226
_cell_angle_gamma   8.90736332
_symmetry_Int_Tables_number   1
_chemical_formula_structural   Zn(InS2)2
_chemical_formula_sum   'Zn2 In4 S8'
_cell_volume   337.41570309
_cell_formula_units_Z   2
loop_
 _symmetry_equiv_pos_site_id
 _symmetry_equiv_pos_as_xyz
  1  'x, y, z'
loop_
 _atom_site_type_symbol
 _atom_site_label
 _atom_site_symmetry_multiplicity
 _atom_site_fract_x
 _atom_site_fract_y
 _atom_site_fract_z
 _atom_site_occupancy
  Zn  Zn0  1  0.50747600  0.50747600  0.50747600  1
  Zn  Zn1  1  0.67522000  0.67522000  0.67522000  1
  In  In2  1  0.11245700  0.11245700  0.11245700  1
  In  In3  1  0.94615500  0.94615500  0.94615500  1
  In  In4  1  0.39313300  0.39313300  0.39313300  1
  In  In5  1  0.22641700  0.22641700  0.22641700  1
  S  S6  1  0.62711800  0.62711800  0.62711800  1
  S  S7  1  0.91359000  0.91359000  0.91359000  1
  S  S8  1  0.16742200  0.16742200  0.16742200  1
  S  S9  1  0.46000600  0.46000600  0.46000600  1
  S  S10  1  0.70987700  0.70987700  0.70987700  1
  S  S11  1  0.54315000  0.54315000  0.54315000  1
  S  S12  1  0.00175500  0.00175500  0.00175500  1
  S  S13  1  0.08005800  0.08005800  0.08005800  1
