# generated using pymatgen
data_Ba2NdRuO6
_symmetry_space_group_name_H-M   'P 1'
_cell_length_a   6.06019216
_cell_length_b   6.06019216
_cell_length_c   6.10259241
_cell_angle_alpha   59.98007311
_cell_angle_beta   59.98007311
_cell_angle_gamma   59.96048240
_symmetry_Int_Tables_number   1
_chemical_formula_structural   Ba2NdRuO6
_chemical_formula_sum   'Ba2 Nd1 Ru1 O6'
_cell_volume   158.38406724
_cell_formula_units_Z   1
loop_
 _symmetry_equiv_pos_site_id
 _symmetry_equiv_pos_as_xyz
  1  'x, y, z'
loop_
 _atom_site_type_symbol
 _atom_site_label
 _atom_site_symmetry_multiplicity
 _atom_site_fract_x
 _atom_site_fract_y
 _atom_site_fract_z
 _atom_site_occupancy
  Ba  Ba0  1  0.75140600  0.75140600  0.24607000  1
  Ba  Ba1  1  0.24859400  0.24859400  0.75393000  1
  Nd  Nd2  1  0.00000000  0.00000000  0.50000000  1
  Ru  Ru3  1  0.50000000  0.50000000  0.00000000  1
  O  O4  1  0.27035700  0.27035700  0.27461300  1
  O  O5  1  0.72964300  0.72964300  0.72538700  1
  O  O6  1  0.70773000  0.24492400  0.79477600  1
  O  O7  1  0.75507600  0.29227000  0.20522400  1
  O  O8  1  0.29227000  0.75507600  0.20522400  1
  O  O9  1  0.24492400  0.70773000  0.79477600  1
