# generated using pymatgen
data_Ca3Sc2(SiO4)3
_symmetry_space_group_name_H-M   'P 1'
_cell_length_a   10.71042196
_cell_length_b   10.71042196
_cell_length_c   10.71042196
_cell_angle_alpha   109.47122063
_cell_angle_beta   109.47122063
_cell_angle_gamma   109.47122063
_symmetry_Int_Tables_number   1
_chemical_formula_structural   Ca3Sc2(SiO4)3
_chemical_formula_sum   'Ca12 Sc8 Si12 O48'
_cell_volume   945.79682608
_cell_formula_units_Z   4
loop_
 _symmetry_equiv_pos_site_id
 _symmetry_equiv_pos_as_xyz
  1  'x, y, z'
loop_
 _atom_site_type_symbol
 _atom_site_label
 _atom_site_symmetry_multiplicity
 _atom_site_fract_x
 _atom_site_fract_y
 _atom_site_fract_z
 _atom_site_occupancy
  Ca  Ca0  1  0.75000000  0.12500000  0.37500000  1
  Ca  Ca1  1  0.25000000  0.37500000  0.12500000  1
  Ca  Ca2  1  0.12500000  0.25000000  0.37500000  1
  Ca  Ca3  1  0.37500000  0.75000000  0.12500000  1
  Ca  Ca4  1  0.75000000  0.62500000  0.87500000  1
  Ca  Ca5  1  0.12500000  0.37500000  0.75000000  1
  Ca  Ca6  1  0.62500000  0.87500000  0.75000000  1
  Ca  Ca7  1  0.25000000  0.87500000  0.62500000  1
  Ca  Ca8  1  0.87500000  0.62500000  0.25000000  1
  Ca  Ca9  1  0.62500000  0.25000000  0.87500000  1
  Ca  Ca10  1  0.87500000  0.75000000  0.62500000  1
  Ca  Ca11  1  0.37500000  0.12500000  0.25000000  1
  Sc  Sc12  1  0.00000000  0.00000000  0.00000000  1
  Sc  Sc13  1  0.50000000  0.00000000  0.00000000  1
  Sc  Sc14  1  0.00000000  0.50000000  0.00000000  1
  Sc  Sc15  1  0.50000000  0.50000000  0.00000000  1
  Sc  Sc16  1  0.00000000  0.50000000  0.50000000  1
  Sc  Sc17  1  0.50000000  0.00000000  0.50000000  1
  Sc  Sc18  1  0.50000000  0.50000000  0.50000000  1
  Sc  Sc19  1  0.00000000  0.00000000  0.50000000  1
  Si  Si20  1  0.12500000  0.87500000  0.25000000  1
  Si  Si21  1  0.87500000  0.12500000  0.75000000  1
  Si  Si22  1  0.25000000  0.62500000  0.37500000  1
  Si  Si23  1  0.37500000  0.25000000  0.62500000  1
  Si  Si24  1  0.75000000  0.87500000  0.12500000  1
  Si  Si25  1  0.12500000  0.75000000  0.87500000  1
  Si  Si26  1  0.37500000  0.62500000  0.75000000  1
  Si  Si27  1  0.62500000  0.75000000  0.37500000  1
  Si  Si28  1  0.87500000  0.25000000  0.12500000  1
  Si  Si29  1  0.25000000  0.12500000  0.87500000  1
  Si  Si30  1  0.75000000  0.37500000  0.62500000  1
  Si  Si31  1  0.62500000  0.37500000  0.25000000  1
  O  O32  1  0.49010700  0.38147500  0.29167200  1
  O  O33  1  0.30156500  0.89136800  0.00989300  1
  O  O34  1  0.60863200  0.91019700  0.11852500  1
  O  O35  1  0.58980300  0.19843500  0.20832800  1
  O  O36  1  0.11852500  0.00989300  0.20832800  1
  O  O37  1  0.19843500  0.20832800  0.58980300  1
  O  O38  1  0.19843500  0.49010700  0.60863200  1
  O  O39  1  0.20832800  0.58980300  0.19843500  1
  O  O40  1  0.38147500  0.58980300  0.89136800  1
  O  O41  1  0.91019700  0.29167200  0.30156500  1
  O  O42  1  0.29167200  0.30156500  0.91019700  1
  O  O43  1  0.20832800  0.11852500  0.00989300  1
  O  O44  1  0.49010700  0.60863200  0.19843500  1
  O  O45  1  0.89136800  0.38147500  0.58980300  1
  O  O46  1  0.00989300  0.20832800  0.11852500  1
  O  O47  1  0.60863200  0.19843500  0.49010700  1
  O  O48  1  0.58980300  0.89136800  0.38147500  1
  O  O49  1  0.00989300  0.30156500  0.89136800  1
  O  O50  1  0.91019700  0.11852500  0.60863200  1
  O  O51  1  0.61852500  0.41019700  0.10863200  1
  O  O52  1  0.11852500  0.60863200  0.91019700  1
  O  O53  1  0.29167200  0.49010700  0.38147500  1
  O  O54  1  0.89136800  0.00989300  0.30156500  1
  O  O55  1  0.30156500  0.91019700  0.29167200  1
  O  O56  1  0.50989300  0.61852500  0.70832800  1
  O  O57  1  0.69843500  0.10863200  0.99010700  1
  O  O58  1  0.39136800  0.08980300  0.88147500  1
  O  O59  1  0.41019700  0.80156500  0.79167200  1
  O  O60  1  0.88147500  0.99010700  0.79167200  1
  O  O61  1  0.80156500  0.79167200  0.41019700  1
  O  O62  1  0.80156500  0.50989300  0.39136800  1
  O  O63  1  0.79167200  0.41019700  0.80156500  1
  O  O64  1  0.69843500  0.08980300  0.70832800  1
  O  O65  1  0.10863200  0.99010700  0.69843500  1
  O  O66  1  0.70832800  0.50989300  0.61852500  1
  O  O67  1  0.61852500  0.70832800  0.50989300  1
  O  O68  1  0.88147500  0.39136800  0.08980300  1
  O  O69  1  0.08980300  0.88147500  0.39136800  1
  O  O70  1  0.99010700  0.69843500  0.10863200  1
  O  O71  1  0.41019700  0.10863200  0.61852500  1
  O  O72  1  0.39136800  0.80156500  0.50989300  1
  O  O73  1  0.99010700  0.79167200  0.88147500  1
  O  O74  1  0.10863200  0.61852500  0.41019700  1
  O  O75  1  0.50989300  0.39136800  0.80156500  1
  O  O76  1  0.79167200  0.88147500  0.99010700  1
  O  O77  1  0.70832800  0.69843500  0.08980300  1
  O  O78  1  0.08980300  0.70832800  0.69843500  1
  O  O79  1  0.38147500  0.29167200  0.49010700  1
