# generated using pymatgen
data_Sr(H8O5)2
_symmetry_space_group_name_H-M   'P 1'
_cell_length_a   6.34260800
_cell_length_b   6.34056900
_cell_length_c   11.16185060
_cell_angle_alpha   89.88727018
_cell_angle_beta   90.00000000
_cell_angle_gamma   90.00000000
_symmetry_Int_Tables_number   1
_chemical_formula_structural   Sr(H8O5)2
_chemical_formula_sum   'Sr2 H32 O20'
_cell_volume   448.88125388
_cell_formula_units_Z   2
loop_
 _symmetry_equiv_pos_site_id
 _symmetry_equiv_pos_as_xyz
  1  'x, y, z'
loop_
 _atom_site_type_symbol
 _atom_site_label
 _atom_site_symmetry_multiplicity
 _atom_site_fract_x
 _atom_site_fract_y
 _atom_site_fract_z
 _atom_site_occupancy
  Sr  Sr0  1  0.00632700  0.00076500  0.25351400  1
  Sr  Sr1  1  0.99367300  0.00076500  0.75351400  1
  H  H2  1  0.45108800  0.03570100  0.37463000  1
  H  H3  1  0.38959400  0.27887300  0.35628100  1
  H  H4  1  0.60748100  0.72387300  0.35570600  1
  H  H5  1  0.68802800  0.85982700  0.46723100  1
  H  H6  1  0.27841200  0.60967300  0.35577700  1
  H  H7  1  0.03549200  0.55145600  0.37456600  1
  H  H8  1  0.72309500  0.39135100  0.35607800  1
  H  H9  1  0.86035800  0.31266500  0.46732200  1
  H  H10  1  0.39251900  0.72387300  0.85570600  1
  H  H11  1  0.31197200  0.85982700  0.96723100  1
  H  H12  1  0.54891200  0.03570100  0.87463000  1
  H  H13  1  0.61040600  0.27887300  0.85628100  1
  H  H14  1  0.27690500  0.39135100  0.85607800  1
  H  H15  1  0.13964200  0.31266500  0.96732200  1
  H  H16  1  0.72158800  0.60967300  0.85577700  1
  H  H17  1  0.96450800  0.55145600  0.87456600  1
  H  H18  1  0.61001600  0.72137500  0.64633200  1
  H  H19  1  0.54710100  0.96200100  0.62723400  1
  H  H20  1  0.38556400  0.26521500  0.65579400  1
  H  H21  1  0.31407900  0.14355400  0.53718800  1
  H  H22  1  0.72010900  0.38911600  0.64619000  1
  H  H23  1  0.96149900  0.45044100  0.62734800  1
  H  H24  1  0.26348700  0.61371600  0.65595500  1
  H  H25  1  0.14249900  0.68581100  0.53728400  1
  H  H26  1  0.61443600  0.26521500  0.15579400  1
  H  H27  1  0.68592100  0.14355400  0.03718800  1
  H  H28  1  0.45289900  0.96200100  0.12723400  1
  H  H29  1  0.38998400  0.72137500  0.14633200  1
  H  H30  1  0.73651300  0.61371600  0.15595500  1
  H  H31  1  0.85750100  0.68581100  0.03728400  1
  H  H32  1  0.03850100  0.45044100  0.12734800  1
  H  H33  1  0.27989100  0.38911600  0.14619000  1
  O  O34  1  0.49454500  0.50034300  0.32103300  1
  O  O35  1  0.50545500  0.50034300  0.82103300  1
  O  O36  1  0.49714300  0.49771500  0.68688900  1
  O  O37  1  0.50285700  0.49771500  0.18688900  1
  O  O38  1  0.32900300  0.13565300  0.38188000  1
  O  O39  1  0.67041800  0.86676100  0.37779900  1
  O  O40  1  0.13655400  0.67233800  0.38244000  1
  O  O41  1  0.86703600  0.33076200  0.37783500  1
  O  O42  1  0.32958200  0.86676100  0.87779900  1
  O  O43  1  0.67099700  0.13565300  0.88188000  1
  O  O44  1  0.13296400  0.33076200  0.87783500  1
  O  O45  1  0.86344600  0.67233800  0.88244000  1
  O  O46  1  0.67103800  0.86404200  0.62143100  1
  O  O47  1  0.32698300  0.12535800  0.62690600  1
  O  O48  1  0.86236400  0.32732400  0.62090900  1
  O  O49  1  0.12292700  0.66965400  0.62686600  1
  O  O50  1  0.67301700  0.12535800  0.12690600  1
  O  O51  1  0.32896200  0.86404200  0.12143100  1
  O  O52  1  0.87707300  0.66965400  0.12686600  1
  O  O53  1  0.13763600  0.32732400  0.12090900  1
