# generated using pymatgen
data_PH3O4
_symmetry_space_group_name_H-M   'P 1'
_cell_length_a   4.91044600
_cell_length_b   5.81129400
_cell_length_c   11.31021708
_cell_angle_alpha   85.29090820
_cell_angle_beta   90.00000000
_cell_angle_gamma   90.00000000
_symmetry_Int_Tables_number   1
_chemical_formula_structural   PH3O4
_chemical_formula_sum   'P4 H12 O16'
_cell_volume   321.65938786
_cell_formula_units_Z   4
loop_
 _symmetry_equiv_pos_site_id
 _symmetry_equiv_pos_as_xyz
  1  'x, y, z'
loop_
 _atom_site_type_symbol
 _atom_site_label
 _atom_site_symmetry_multiplicity
 _atom_site_fract_x
 _atom_site_fract_y
 _atom_site_fract_z
 _atom_site_occupancy
  P  P0  1  0.04502900  0.78847300  0.63875000  1
  P  P1  1  0.54273200  0.20760400  0.85948700  1
  P  P2  1  0.45726800  0.20760400  0.35948700  1
  P  P3  1  0.95497100  0.78847300  0.13875000  1
  H  H4  1  0.70436100  0.69154100  0.52732700  1
  H  H5  1  0.23010300  0.19556400  0.00059200  1
  H  H6  1  0.76989700  0.19556400  0.50059200  1
  H  H7  1  0.29563900  0.69154100  0.02732700  1
  H  H8  1  0.19893000  0.13876400  0.67422400  1
  H  H9  1  0.70190300  0.86128800  0.82515000  1
  H  H10  1  0.29809700  0.86128800  0.32515000  1
  H  H11  1  0.80107000  0.13876400  0.17422400  1
  H  H12  1  0.36888300  0.52970000  0.68195800  1
  H  H13  1  0.87018000  0.46706900  0.82013100  1
  H  H14  1  0.12982000  0.46706900  0.32013100  1
  H  H15  1  0.63111700  0.52970000  0.18195800  1
  O  O16  1  0.90137300  0.72012000  0.52178200  1
  O  O17  1  0.39367500  0.28227300  0.97406200  1
  O  O18  1  0.60632500  0.28227300  0.47406200  1
  O  O19  1  0.09862700  0.72012000  0.02178200  1
  O  O20  1  0.06654600  0.05858300  0.61981300  1
  O  O21  1  0.56945700  0.93850600  0.87924800  1
  O  O22  1  0.43054300  0.93850600  0.37924800  1
  O  O23  1  0.93345400  0.05858300  0.11981300  1
  O  O24  1  0.89299500  0.70899400  0.75069000  1
  O  O25  1  0.39511500  0.28474200  0.74516700  1
  O  O26  1  0.60488500  0.28474200  0.24516700  1
  O  O27  1  0.10700500  0.70899400  0.25069000  1
  O  O28  1  0.34087200  0.68794200  0.63456400  1
  O  O29  1  0.83328500  0.31219400  0.86730600  1
  O  O30  1  0.16671500  0.31219400  0.36730600  1
  O  O31  1  0.65912800  0.68794200  0.13456400  1
