# generated using pymatgen
data_KHO
_symmetry_space_group_name_H-M   'P 1'
_cell_length_a   3.98388700
_cell_length_b   4.05402200
_cell_length_c   5.75369800
_cell_angle_alpha   75.11700636
_cell_angle_beta   90.00000000
_cell_angle_gamma   90.00000000
_symmetry_Int_Tables_number   1
_chemical_formula_structural   KHO
_chemical_formula_sum   'K2 H2 O2'
_cell_volume   89.80915819
_cell_formula_units_Z   2
loop_
 _symmetry_equiv_pos_site_id
 _symmetry_equiv_pos_as_xyz
  1  'x, y, z'
loop_
 _atom_site_type_symbol
 _atom_site_label
 _atom_site_symmetry_multiplicity
 _atom_site_fract_x
 _atom_site_fract_y
 _atom_site_fract_z
 _atom_site_occupancy
  K  K0  1  0.75816500  0.82782800  0.28814200  1
  K  K1  1  0.25816500  0.17217200  0.71185800  1
  H  H2  1  0.89420900  0.56955600  0.90945600  1
  H  H3  1  0.39420900  0.43044400  0.09054400  1
  O  O4  1  0.74704900  0.67582900  0.77478800  1
  O  O5  1  0.24704900  0.32417100  0.22521200  1
