# generated using pymatgen
data_V3(H3O5)2
_symmetry_space_group_name_H-M   'P 1'
_cell_length_a   8.95753300
_cell_length_b   5.94510500
_cell_length_c   9.07775406
_cell_angle_alpha   88.32257950
_cell_angle_beta   90.00000000
_cell_angle_gamma   90.00000000
_symmetry_Int_Tables_number   1
_chemical_formula_structural   V3(H3O5)2
_chemical_formula_sum   'V6 H12 O20'
_cell_volume   483.21478265
_cell_formula_units_Z   2
loop_
 _symmetry_equiv_pos_site_id
 _symmetry_equiv_pos_as_xyz
  1  'x, y, z'
loop_
 _atom_site_type_symbol
 _atom_site_label
 _atom_site_symmetry_multiplicity
 _atom_site_fract_x
 _atom_site_fract_y
 _atom_site_fract_z
 _atom_site_occupancy
  V  V0  1  0.74880500  0.25292300  0.49916300  1
  V  V1  1  0.25119500  0.25292300  0.99916300  1
  V  V2  1  0.61079300  0.26744400  0.13618700  1
  V  V3  1  0.88640400  0.27427800  0.86347600  1
  V  V4  1  0.38920700  0.26744400  0.63618700  1
  V  V5  1  0.11359600  0.27427800  0.36347600  1
  H  H6  1  0.68887100  0.65011200  0.17638800  1
  H  H7  1  0.81765300  0.66489700  0.89049000  1
  H  H8  1  0.31112900  0.65011200  0.67638800  1
  H  H9  1  0.18234700  0.66489700  0.39049000  1
  H  H10  1  0.53765300  0.81719800  0.90812800  1
  H  H11  1  0.60840300  0.85397400  0.75342100  1
  H  H12  1  0.88671300  0.92381000  0.14033100  1
  H  H13  1  0.95500400  0.71704600  0.22656800  1
  H  H14  1  0.39159700  0.85397400  0.25342100  1
  H  H15  1  0.46234700  0.81719800  0.40812800  1
  H  H16  1  0.11328700  0.92381000  0.64033100  1
  H  H17  1  0.04499600  0.71704600  0.72656800  1
  O  O18  1  0.74215200  0.52509200  0.49300800  1
  O  O19  1  0.25784800  0.52509200  0.99300800  1
  O  O20  1  0.66244100  0.16399100  0.30501500  1
  O  O21  1  0.83599400  0.17140100  0.69606100  1
  O  O22  1  0.33755900  0.16399100  0.80501500  1
  O  O23  1  0.16400600  0.17140100  0.19606100  1
  O  O24  1  0.55539600  0.14760400  0.58626700  1
  O  O25  1  0.94328100  0.16665900  0.41167000  1
  O  O26  1  0.05671900  0.16665900  0.91167000  1
  O  O27  1  0.44460400  0.14760400  0.08626700  1
  O  O28  1  0.60018400  0.56308200  0.14004200  1
  O  O29  1  0.90213900  0.57312200  0.85394200  1
  O  O30  1  0.39981600  0.56308200  0.64004200  1
  O  O31  1  0.09786100  0.57312200  0.35394200  1
  O  O32  1  0.75572400  0.19717700  0.00526100  1
  O  O33  1  0.24427600  0.19717700  0.50526100  1
  O  O34  1  0.61951700  0.76810700  0.84594900  1
  O  O35  1  0.87186800  0.76286700  0.16208000  1
  O  O36  1  0.38048300  0.76810700  0.34594900  1
  O  O37  1  0.12813200  0.76286700  0.66208000  1
