# generated using pymatgen
data_Ga2Ge4Pb3O14
_symmetry_space_group_name_H-M   'P 1'
_cell_length_a   8.54163843
_cell_length_b   8.54163843
_cell_length_c   5.01101600
_cell_angle_alpha   90.00000000
_cell_angle_beta   90.00000000
_cell_angle_gamma   120.00000337
_symmetry_Int_Tables_number   1
_chemical_formula_structural   Ga2Ge4Pb3O14
_chemical_formula_sum   'Ga2 Ge4 Pb3 O14'
_cell_volume   316.62031324
_cell_formula_units_Z   1
loop_
 _symmetry_equiv_pos_site_id
 _symmetry_equiv_pos_as_xyz
  1  'x, y, z'
loop_
 _atom_site_type_symbol
 _atom_site_label
 _atom_site_symmetry_multiplicity
 _atom_site_fract_x
 _atom_site_fract_y
 _atom_site_fract_z
 _atom_site_occupancy
  Ga  Ga0  1  0.66666700  0.33333300  0.49515200  1
  Ga  Ga1  1  0.33333300  0.66666700  0.50484800  1
  Ge  Ge2  1  0.24539900  0.00000000  0.50000000  1
  Ge  Ge3  1  0.00000000  0.00000000  0.00000000  1
  Ge  Ge4  1  0.00000000  0.24539900  0.50000000  1
  Ge  Ge5  1  0.75460100  0.75460100  0.50000000  1
  Pb  Pb6  1  0.57913200  0.00000000  0.00000000  1
  Pb  Pb7  1  0.00000000  0.57913200  0.00000000  1
  Pb  Pb8  1  0.42086800  0.42086800  0.00000000  1
  O  O9  1  0.66666700  0.33333300  0.85260500  1
  O  O10  1  0.55281100  0.71456600  0.66514600  1
  O  O11  1  0.28543400  0.83824600  0.66514600  1
  O  O12  1  0.79237700  0.90970500  0.23263800  1
  O  O13  1  0.11732800  0.20762300  0.23263800  1
  O  O14  1  0.83824600  0.28543400  0.33485400  1
  O  O15  1  0.88267200  0.09029500  0.76736200  1
  O  O16  1  0.44718900  0.16175400  0.33485400  1
  O  O17  1  0.71456600  0.55281100  0.33485400  1
  O  O18  1  0.09029500  0.88267200  0.23263800  1
  O  O19  1  0.90970500  0.79237700  0.76736200  1
  O  O20  1  0.16175400  0.44718900  0.66514600  1
  O  O21  1  0.33333300  0.66666700  0.14739500  1
  O  O22  1  0.20762300  0.11732800  0.76736200  1
