# generated using pymatgen
data_Nd(Fe2B)6
_symmetry_space_group_name_H-M   'P 1'
_cell_length_a   6.06933211
_cell_length_b   6.06933211
_cell_length_c   6.06933175
_cell_angle_alpha   104.33974656
_cell_angle_beta   104.33974656
_cell_angle_gamma   104.33976053
_symmetry_Int_Tables_number   1
_chemical_formula_structural   Nd(Fe2B)6
_chemical_formula_sum   'Nd1 Fe12 B6'
_cell_volume   198.16238364
_cell_formula_units_Z   1
loop_
 _symmetry_equiv_pos_site_id
 _symmetry_equiv_pos_as_xyz
  1  'x, y, z'
loop_
 _atom_site_type_symbol
 _atom_site_label
 _atom_site_symmetry_multiplicity
 _atom_site_fract_x
 _atom_site_fract_y
 _atom_site_fract_z
 _atom_site_occupancy
  Nd  Nd0  1  0.00000000  0.00000000  0.00000000  1
  Fe  Fe1  1  0.86914200  0.13085800  0.50000000  1
  Fe  Fe2  1  0.45598700  0.18786400  0.45598700  1
  Fe  Fe3  1  0.45598700  0.45598700  0.18786400  1
  Fe  Fe4  1  0.18786400  0.45598700  0.45598700  1
  Fe  Fe5  1  0.13085800  0.50000000  0.86914200  1
  Fe  Fe6  1  0.50000000  0.86914200  0.13085800  1
  Fe  Fe7  1  0.81213600  0.54401300  0.54401300  1
  Fe  Fe8  1  0.13085800  0.86914200  0.50000000  1
  Fe  Fe9  1  0.86914200  0.50000000  0.13085800  1
  Fe  Fe10  1  0.50000000  0.13085800  0.86914200  1
  Fe  Fe11  1  0.54401300  0.54401300  0.81213600  1
  Fe  Fe12  1  0.54401300  0.81213600  0.54401300  1
  B  B13  1  0.23067600  0.23067600  0.68470800  1
  B  B14  1  0.31529200  0.76932400  0.76932400  1
  B  B15  1  0.76932400  0.31529200  0.76932400  1
  B  B16  1  0.68470800  0.23067600  0.23067600  1
  B  B17  1  0.76932400  0.76932400  0.31529200  1
  B  B18  1  0.23067600  0.68470800  0.23067600  1
