# generated using pymatgen
data_Cs2UTa6(Cl5O)3
_symmetry_space_group_name_H-M   'P 1'
_cell_length_a   9.24160637
_cell_length_b   9.24160637
_cell_length_c   17.30114700
_cell_angle_alpha   90.00000000
_cell_angle_beta   90.00000000
_cell_angle_gamma   120.00000268
_symmetry_Int_Tables_number   1
_chemical_formula_structural   Cs2UTa6(Cl5O)3
_chemical_formula_sum   'Cs4 U2 Ta12 Cl30 O6'
_cell_volume   1279.67725145
_cell_formula_units_Z   2
loop_
 _symmetry_equiv_pos_site_id
 _symmetry_equiv_pos_as_xyz
  1  'x, y, z'
loop_
 _atom_site_type_symbol
 _atom_site_label
 _atom_site_symmetry_multiplicity
 _atom_site_fract_x
 _atom_site_fract_y
 _atom_site_fract_z
 _atom_site_occupancy
  Cs  Cs0  1  0.33333300  0.66666700  0.45388600  1
  Cs  Cs1  1  0.66666700  0.33333300  0.95388600  1
  Cs  Cs2  1  0.33333300  0.66666700  0.04611400  1
  Cs  Cs3  1  0.66666700  0.33333300  0.54611400  1
  U  U4  1  0.33333300  0.66666700  0.75000000  1
  U  U5  1  0.66666700  0.33333300  0.25000000  1
  Ta  Ta6  1  0.19102700  0.01339000  0.18282600  1
  Ta  Ta7  1  0.98661000  0.17763700  0.18282600  1
  Ta  Ta8  1  0.80897300  0.82236300  0.68282600  1
  Ta  Ta9  1  0.17763700  0.19102700  0.81717400  1
  Ta  Ta10  1  0.82236300  0.01339000  0.31717400  1
  Ta  Ta11  1  0.19102700  0.17763700  0.31717400  1
  Ta  Ta12  1  0.01339000  0.82236300  0.81717400  1
  Ta  Ta13  1  0.80897300  0.98661000  0.81717400  1
  Ta  Ta14  1  0.98661000  0.80897300  0.31717400  1
  Ta  Ta15  1  0.01339000  0.19102700  0.68282600  1
  Ta  Ta16  1  0.82236300  0.80897300  0.18282600  1
  Ta  Ta17  1  0.17763700  0.98661000  0.68282600  1
  Cl  Cl18  1  0.92723500  0.53102200  0.38395400  1
  Cl  Cl19  1  0.53102200  0.92723500  0.88395400  1
  Cl  Cl20  1  0.53102200  0.60378700  0.61604600  1
  Cl  Cl21  1  0.39621300  0.46897800  0.88395400  1
  Cl  Cl22  1  0.20506400  0.98480800  0.41392900  1
  Cl  Cl23  1  0.07276500  0.46897800  0.61604600  1
  Cl  Cl24  1  0.77974400  0.98480800  0.08607100  1
  Cl  Cl25  1  0.98480800  0.20506400  0.91392900  1
  Cl  Cl26  1  0.20506400  0.22025600  0.08607100  1
  Cl  Cl27  1  0.98480800  0.77974400  0.58607100  1
  Cl  Cl28  1  0.22025600  0.20506400  0.58607100  1
  Cl  Cl29  1  0.01519200  0.79493600  0.08607100  1
  Cl  Cl30  1  0.21252500  0.42505100  0.25000000  1
  Cl  Cl31  1  0.60378700  0.53102200  0.11604600  1
  Cl  Cl32  1  0.22025600  0.01519200  0.91392900  1
  Cl  Cl33  1  0.60378700  0.07276500  0.38395400  1
  Cl  Cl34  1  0.57494900  0.78747500  0.25000000  1
  Cl  Cl35  1  0.39621300  0.92723500  0.61604600  1
  Cl  Cl36  1  0.77974400  0.79493600  0.41392900  1
  Cl  Cl37  1  0.79493600  0.01519200  0.58607100  1
  Cl  Cl38  1  0.07276500  0.60378700  0.88395400  1
  Cl  Cl39  1  0.46897800  0.07276500  0.11604600  1
  Cl  Cl40  1  0.42505100  0.21252500  0.75000000  1
  Cl  Cl41  1  0.01519200  0.22025600  0.41392900  1
  Cl  Cl42  1  0.78747500  0.57494900  0.75000000  1
  Cl  Cl43  1  0.92723500  0.39621300  0.11604600  1
  Cl  Cl44  1  0.21252500  0.78747500  0.25000000  1
  Cl  Cl45  1  0.78747500  0.21252500  0.75000000  1
  Cl  Cl46  1  0.79493600  0.77974400  0.91392900  1
  Cl  Cl47  1  0.46897800  0.39621300  0.38395400  1
  O  O48  1  0.81192900  0.18807100  0.25000000  1
  O  O49  1  0.37614300  0.18807100  0.25000000  1
  O  O50  1  0.18807100  0.37614300  0.75000000  1
  O  O51  1  0.81192900  0.62385700  0.25000000  1
  O  O52  1  0.62385700  0.81192900  0.75000000  1
  O  O53  1  0.18807100  0.81192900  0.75000000  1
