# generated using pymatgen
data_Ce(AgGe)2
_symmetry_space_group_name_H-M   'P 1'
_cell_length_a   6.37629511
_cell_length_b   6.37629511
_cell_length_c   6.37629511
_cell_angle_alpha   140.56158823
_cell_angle_beta   140.56158823
_cell_angle_gamma   57.00159158
_symmetry_Int_Tables_number   1
_chemical_formula_structural   Ce(AgGe)2
_chemical_formula_sum   'Ce1 Ag2 Ge2'
_cell_volume   103.74769927
_cell_formula_units_Z   1
loop_
 _symmetry_equiv_pos_site_id
 _symmetry_equiv_pos_as_xyz
  1  'x, y, z'
loop_
 _atom_site_type_symbol
 _atom_site_label
 _atom_site_symmetry_multiplicity
 _atom_site_fract_x
 _atom_site_fract_y
 _atom_site_fract_z
 _atom_site_occupancy
  Ce  Ce0  1  0.00000000  0.00000000  0.00000000  1
  Ag  Ag1  1  0.75000000  0.25000000  0.50000000  1
  Ag  Ag2  1  0.25000000  0.75000000  0.50000000  1
  Ge  Ge3  1  0.60936700  0.60936700  0.00000000  1
  Ge  Ge4  1  0.39063300  0.39063300  0.00000000  1
