# generated using pymatgen
data_K2SrCl4
_symmetry_space_group_name_H-M   'P 1'
_cell_length_a   13.15463100
_cell_length_b   8.07594500
_cell_length_c   8.17544946
_cell_angle_alpha   70.15036016
_cell_angle_beta   90.00000000
_cell_angle_gamma   90.00000000
_symmetry_Int_Tables_number   1
_chemical_formula_structural   K2SrCl4
_chemical_formula_sum   'K8 Sr4 Cl16'
_cell_volume   816.92578805
_cell_formula_units_Z   4
loop_
 _symmetry_equiv_pos_site_id
 _symmetry_equiv_pos_as_xyz
  1  'x, y, z'
loop_
 _atom_site_type_symbol
 _atom_site_label
 _atom_site_symmetry_multiplicity
 _atom_site_fract_x
 _atom_site_fract_y
 _atom_site_fract_z
 _atom_site_occupancy
  K  K0  1  0.94462600  0.30937600  0.82273200  1
  K  K1  1  0.43994300  0.82040800  0.30263900  1
  K  K2  1  0.81039000  0.94265000  0.42756800  1
  K  K3  1  0.62731200  0.25724900  0.99669500  1
  K  K4  1  0.56005700  0.82040800  0.80263900  1
  K  K5  1  0.18961000  0.94265000  0.92756800  1
  K  K6  1  0.05537400  0.30937600  0.32273200  1
  K  K7  1  0.37268800  0.25724900  0.49669500  1
  Sr  Sr8  1  0.30715900  0.42158300  0.94959700  1
  Sr  Sr9  1  0.69284100  0.42158300  0.44959700  1
  Sr  Sr10  1  0.12313000  0.74586300  0.48662400  1
  Sr  Sr11  1  0.87687000  0.74586300  0.98662400  1
  Cl  Cl12  1  0.75744200  0.61793700  0.75239600  1
  Cl  Cl13  1  0.69285800  0.77850600  0.18323900  1
  Cl  Cl14  1  0.23920700  0.11074500  0.25210200  1
  Cl  Cl15  1  0.58190900  0.09949100  0.42090200  1
  Cl  Cl16  1  0.17949200  0.34938900  0.68469600  1
  Cl  Cl17  1  0.51706100  0.50203800  0.61460100  1
  Cl  Cl18  1  0.82050800  0.34938900  0.18469600  1
  Cl  Cl19  1  0.06740000  0.57155000  0.94147200  1
  Cl  Cl20  1  0.48293900  0.50203800  0.11460100  1
  Cl  Cl21  1  0.93260000  0.57155000  0.44147200  1
  Cl  Cl22  1  0.99373700  0.97321600  0.13613700  1
  Cl  Cl23  1  0.30714200  0.77850600  0.68323900  1
  Cl  Cl24  1  0.00626300  0.97321600  0.63613700  1
  Cl  Cl25  1  0.76079300  0.11074500  0.75210200  1
  Cl  Cl26  1  0.41809100  0.09949100  0.92090200  1
  Cl  Cl27  1  0.24255800  0.61793700  0.25239600  1
