# generated using pymatgen
data_Nd2Zr8O19
_symmetry_space_group_name_H-M   'P 1'
_cell_length_a   3.58499300
_cell_length_b   3.71821100
_cell_length_c   26.33702400
_cell_angle_alpha   90.00000000
_cell_angle_beta   90.00000000
_cell_angle_gamma   90.00000000
_symmetry_Int_Tables_number   1
_chemical_formula_structural   Nd2Zr8O19
_chemical_formula_sum   'Nd2 Zr8 O19'
_cell_volume   351.06621977
_cell_formula_units_Z   1
loop_
 _symmetry_equiv_pos_site_id
 _symmetry_equiv_pos_as_xyz
  1  'x, y, z'
loop_
 _atom_site_type_symbol
 _atom_site_label
 _atom_site_symmetry_multiplicity
 _atom_site_fract_x
 _atom_site_fract_y
 _atom_site_fract_z
 _atom_site_occupancy
  Nd  Nd0  1  0.00000000  0.50000000  0.99153500  1
  Nd  Nd1  1  0.50000000  0.00000000  0.11277200  1
  Zr  Zr2  1  0.00000000  0.50000000  0.21229000  1
  Zr  Zr3  1  0.00000000  0.50000000  0.40661800  1
  Zr  Zr4  1  0.50000000  0.00000000  0.30945800  1
  Zr  Zr5  1  0.50000000  0.00000000  0.50352900  1
  Zr  Zr6  1  0.50000000  0.00000000  0.69796200  1
  Zr  Zr7  1  0.00000000  0.50000000  0.60055000  1
  Zr  Zr8  1  0.00000000  0.50000000  0.79537200  1
  Zr  Zr9  1  0.50000000  0.00000000  0.89274700  1
  O  O10  1  0.50000000  0.50000000  0.25477400  1
  O  O11  1  0.00000000  0.00000000  0.35844800  1
  O  O12  1  0.50000000  0.50000000  0.45247800  1
  O  O13  1  0.00000000  0.00000000  0.54975900  1
  O  O14  1  0.50000000  0.50000000  0.64902500  1
  O  O15  1  0.00000000  0.00000000  0.74244500  1
  O  O16  1  0.50000000  0.50000000  0.84523100  1
  O  O17  1  0.00000000  0.00000000  0.83785200  1
  O  O18  1  0.00000000  0.00000000  0.93634200  1
  O  O19  1  0.50000000  0.50000000  0.94051000  1
  O  O20  1  0.00000000  0.00000000  0.04252400  1
  O  O21  1  0.00000000  0.00000000  0.16738100  1
  O  O22  1  0.50000000  0.50000000  0.15403300  1
  O  O23  1  0.00000000  0.00000000  0.26099300  1
  O  O24  1  0.50000000  0.50000000  0.35233200  1
  O  O25  1  0.00000000  0.00000000  0.45233900  1
  O  O26  1  0.50000000  0.50000000  0.54885100  1
  O  O27  1  0.00000000  0.00000000  0.64438800  1
  O  O28  1  0.50000000  0.50000000  0.74529700  1
