# generated using pymatgen
data_CdI2
_symmetry_space_group_name_H-M   'P 1'
_cell_length_a   4.34597546
_cell_length_b   4.34597546
_cell_length_c   80.82293400
_cell_angle_alpha   90.00000000
_cell_angle_beta   90.00000000
_cell_angle_gamma   119.99999182
_symmetry_Int_Tables_number   1
_chemical_formula_structural   CdI2
_chemical_formula_sum   'Cd11 I22'
_cell_volume   1322.02546124
_cell_formula_units_Z   11
loop_
 _symmetry_equiv_pos_site_id
 _symmetry_equiv_pos_as_xyz
  1  'x, y, z'
loop_
 _atom_site_type_symbol
 _atom_site_label
 _atom_site_symmetry_multiplicity
 _atom_site_fract_x
 _atom_site_fract_y
 _atom_site_fract_z
 _atom_site_occupancy
  Cd  Cd0  1  0.00000000  0.00000000  0.29544900  1
  Cd  Cd1  1  0.33333300  0.66666700  0.56818500  1
  Cd  Cd2  1  0.66666700  0.33333300  0.02273500  1
  Cd  Cd3  1  0.00000000  0.00000000  0.93180800  1
  Cd  Cd4  1  0.00000000  0.00000000  0.84092500  1
  Cd  Cd5  1  0.00000000  0.00000000  0.20454800  1
  Cd  Cd6  1  0.00000000  0.00000000  0.11363700  1
  Cd  Cd7  1  0.00000000  0.00000000  0.65907300  1
  Cd  Cd8  1  0.33333300  0.66666700  0.47726300  1
  Cd  Cd9  1  0.00000000  0.00000000  0.38635800  1
  Cd  Cd10  1  0.33333300  0.66666700  0.75000000  1
  I  I11  1  0.33333300  0.66666700  0.40776200  1
  I  I12  1  0.00000000  0.00000000  0.58961000  1
  I  I13  1  0.33333300  0.66666700  0.86232300  1
  I  I14  1  0.33333300  0.66666700  0.95319900  1
  I  I15  1  0.66666700  0.33333300  0.45586200  1
  I  I16  1  0.66666700  0.33333300  0.27405800  1
  I  I17  1  0.66666700  0.33333300  0.36495700  1
  I  I18  1  0.33333300  0.66666700  0.04413600  1
  I  I19  1  0.66666700  0.33333300  0.18313200  1
  I  I20  1  0.33333300  0.66666700  0.22593200  1
  I  I21  1  0.66666700  0.33333300  0.09223500  1
  I  I22  1  0.00000000  0.00000000  0.00136400  1
  I  I23  1  0.00000000  0.00000000  0.77141100  1
  I  I24  1  0.33333300  0.66666700  0.31686500  1
  I  I25  1  0.66666700  0.33333300  0.54678800  1
  I  I26  1  0.66666700  0.33333300  0.72861100  1
  I  I27  1  0.33333300  0.66666700  0.68047000  1
  I  I28  1  0.66666700  0.33333300  0.91042700  1
  I  I29  1  0.00000000  0.00000000  0.49863400  1
  I  I30  1  0.66666700  0.33333300  0.81952900  1
  I  I31  1  0.33333300  0.66666700  0.13503900  1
  I  I32  1  0.66666700  0.33333300  0.63767400  1
