# generated using pymatgen
data_Rb2Cd2(SO4)3
_symmetry_space_group_name_H-M   'P 1'
_cell_length_a   10.64768200
_cell_length_b   10.56880300
_cell_length_c   11.00651213
_cell_angle_alpha   88.88391100
_cell_angle_beta   90.00000000
_cell_angle_gamma   90.00000000
_symmetry_Int_Tables_number   1
_chemical_formula_structural   Rb2Cd2(SO4)3
_chemical_formula_sum   'Rb8 Cd8 S12 O48'
_cell_volume   1238.36363522
_cell_formula_units_Z   4
loop_
 _symmetry_equiv_pos_site_id
 _symmetry_equiv_pos_as_xyz
  1  'x, y, z'
loop_
 _atom_site_type_symbol
 _atom_site_label
 _atom_site_symmetry_multiplicity
 _atom_site_fract_x
 _atom_site_fract_y
 _atom_site_fract_z
 _atom_site_occupancy
  Rb  Rb0  1  0.59217900  0.93934700  0.32374900  1
  Rb  Rb1  1  0.85579800  0.28845300  0.47230000  1
  Rb  Rb2  1  0.09217900  0.06065300  0.67625100  1
  Rb  Rb3  1  0.71573900  0.56091800  0.83402200  1
  Rb  Rb4  1  0.44528900  0.19422700  0.97409100  1
  Rb  Rb5  1  0.94528900  0.80577300  0.02590900  1
  Rb  Rb6  1  0.35579800  0.71154700  0.52770000  1
  Rb  Rb7  1  0.21573900  0.43908200  0.16597800  1
  Cd  Cd8  1  0.80015200  0.18091300  0.08875100  1
  Cd  Cd9  1  0.00433400  0.67824800  0.43294000  1
  Cd  Cd10  1  0.06317200  0.41223000  0.81700500  1
  Cd  Cd11  1  0.56317200  0.58777000  0.18299500  1
  Cd  Cd12  1  0.24712400  0.09518700  0.30332000  1
  Cd  Cd13  1  0.74712400  0.90481300  0.69668000  1
  Cd  Cd14  1  0.30015200  0.81908700  0.91124900  1
  Cd  Cd15  1  0.50433400  0.32175200  0.56706000  1
  S  S16  1  0.87355200  0.47727900  0.16541900  1
  S  S17  1  0.68477500  0.62274600  0.48616800  1
  S  S18  1  0.61430900  0.87586600  0.99005300  1
  S  S19  1  0.76672000  0.24413700  0.78630800  1
  S  S20  1  0.26672000  0.75586300  0.21369200  1
  S  S21  1  0.93375500  0.96260200  0.34555800  1
  S  S22  1  0.43375500  0.03739800  0.65444200  1
  S  S23  1  0.53916000  0.28175100  0.26989800  1
  S  S24  1  0.11430900  0.12413400  0.00994700  1
  S  S25  1  0.37355200  0.52272100  0.83458100  1
  S  S26  1  0.03916000  0.71824900  0.73010200  1
  S  S27  1  0.18477500  0.37725400  0.51383200  1
  O  O28  1  0.66811100  0.73379700  0.56429100  1
  O  O29  1  0.63358500  0.77240000  0.08195400  1
  O  O30  1  0.89195000  0.29663600  0.74844600  1
  O  O31  1  0.26914800  0.89442100  0.21948100  1
  O  O32  1  0.35990600  0.94396300  0.72320300  1
  O  O33  1  0.15624300  0.17172300  0.13125700  1
  O  O34  1  0.07881700  0.76246800  0.59935800  1
  O  O35  1  0.61095900  0.18972700  0.18843000  1
  O  O36  1  0.75380000  0.51985500  0.10666500  1
  O  O37  1  0.85335200  0.91839600  0.46281200  1
  O  O38  1  0.23481400  0.71690300  0.08662200  1
  O  O39  1  0.36383300  0.65638400  0.78398200  1
  O  O40  1  0.60766200  0.51631600  0.53579000  1
  O  O41  1  0.13358500  0.22760000  0.91804600  1
  O  O42  1  0.76914800  0.10557900  0.78051900  1
  O  O43  1  0.17165800  0.69622000  0.29701400  1
  O  O44  1  0.97838700  0.08677100  0.01660900  1
  O  O45  1  0.96187100  0.43394500  0.04547500  1
  O  O46  1  0.16811100  0.26620300  0.43570900  1
  O  O47  1  0.96524300  0.53194800  0.94656800  1
  O  O48  1  0.47838700  0.91322900  0.98339100  1
  O  O49  1  0.86383300  0.34361600  0.21601800  1
  O  O50  1  0.55396300  0.98999900  0.61162000  1
  O  O51  1  0.93790200  0.83696400  0.28789600  1
  O  O52  1  0.25380000  0.48014500  0.89333500  1
  O  O53  1  0.73481400  0.28309700  0.91337800  1
  O  O54  1  0.84570400  0.01793100  0.55549900  1
  O  O55  1  0.67165800  0.30378000  0.70298600  1
  O  O56  1  0.34570400  0.98206900  0.44450100  1
  O  O57  1  0.90069500  0.75441200  0.74656300  1
  O  O58  1  0.32013900  0.41969600  0.51799900  1
  O  O59  1  0.65624300  0.82827700  0.86874300  1
  O  O60  1  0.35335200  0.08160400  0.53718800  1
  O  O61  1  0.85990600  0.05603700  0.27679700  1
  O  O62  1  0.39195000  0.70336400  0.25155400  1
  O  O63  1  0.57881700  0.23753200  0.40064200  1
  O  O64  1  0.40069500  0.24558800  0.25343700  1
  O  O65  1  0.10766200  0.48368400  0.46421000  1
  O  O66  1  0.18975200  0.01354300  0.97419000  1
  O  O67  1  0.05396300  0.01000100  0.38838000  1
  O  O68  1  0.14264800  0.34187600  0.63988900  1
  O  O69  1  0.82013900  0.58030400  0.48200100  1
  O  O70  1  0.43790200  0.16303600  0.71210400  1
  O  O71  1  0.68975200  0.98645700  0.02581000  1
  O  O72  1  0.11095900  0.81027300  0.81157000  1
  O  O73  1  0.64264800  0.65812400  0.36011100  1
  O  O74  1  0.46524300  0.46805200  0.05343200  1
  O  O75  1  0.46187100  0.56605500  0.95452500  1
