# generated using pymatgen
data_Rb2YTi(PO4)3
_symmetry_space_group_name_H-M   'P 1'
_cell_length_a   10.36034500
_cell_length_b   10.38056600
_cell_length_c   20.68283305
_cell_angle_alpha   89.91082969
_cell_angle_beta   90.00000000
_cell_angle_gamma   90.00000000
_symmetry_Int_Tables_number   1
_chemical_formula_structural   Rb2YTi(PO4)3
_chemical_formula_sum   'Rb16 Y8 Ti8 P24 O96'
_cell_volume   2224.35833760
_cell_formula_units_Z   8
loop_
 _symmetry_equiv_pos_site_id
 _symmetry_equiv_pos_as_xyz
  1  'x, y, z'
loop_
 _atom_site_type_symbol
 _atom_site_label
 _atom_site_symmetry_multiplicity
 _atom_site_fract_x
 _atom_site_fract_y
 _atom_site_fract_z
 _atom_site_occupancy
  Rb  Rb0  1  0.93426300  0.67639700  0.71368600  1
  Rb  Rb1  1  0.92937700  0.67816400  0.21585600  1
  Rb  Rb2  1  0.79236100  0.04189200  0.85311000  1
  Rb  Rb3  1  0.79506400  0.04005200  0.35297300  1
  Rb  Rb4  1  0.71046700  0.45351900  0.60256500  1
  Rb  Rb5  1  0.70721500  0.45783700  0.10283000  1
  Rb  Rb6  1  0.57099500  0.82098300  0.96418200  1
  Rb  Rb7  1  0.57063600  0.81823800  0.46555900  1
  Rb  Rb8  1  0.43426300  0.32360300  0.28631400  1
  Rb  Rb9  1  0.42937700  0.32183600  0.78414400  1
  Rb  Rb10  1  0.29506400  0.95994800  0.64702700  1
  Rb  Rb11  1  0.29236100  0.95810800  0.14689000  1
  Rb  Rb12  1  0.20721500  0.54216300  0.89717000  1
  Rb  Rb13  1  0.21046700  0.54648100  0.39743500  1
  Rb  Rb14  1  0.07063600  0.18176200  0.53444100  1
  Rb  Rb15  1  0.07099500  0.17901700  0.03581800  1
  Y  Y16  1  0.91587600  0.83305200  0.04214900  1
  Y  Y17  1  0.85239600  0.39026100  0.42309700  1
  Y  Y18  1  0.58596200  0.66757000  0.78982000  1
  Y  Y19  1  0.58476900  0.66720500  0.29489800  1
  Y  Y20  1  0.41587600  0.16694800  0.95785100  1
  Y  Y21  1  0.35239600  0.60973900  0.57690300  1
  Y  Y22  1  0.08476900  0.33279500  0.70510200  1
  Y  Y23  1  0.08596200  0.33243000  0.21018000  1
  Ti  Ti24  1  0.91804600  0.83550700  0.54207700  1
  Ti  Ti25  1  0.85557500  0.39479800  0.92796200  1
  Ti  Ti26  1  0.64564400  0.10138600  0.67961600  1
  Ti  Ti27  1  0.64311200  0.10724400  0.17528500  1
  Ti  Ti28  1  0.41804600  0.16449300  0.45792300  1
  Ti  Ti29  1  0.35557500  0.60520200  0.07203800  1
  Ti  Ti30  1  0.14564400  0.89861400  0.32038400  1
  Ti  Ti31  1  0.14311200  0.89275600  0.82471500  1
  P  P32  1  0.95570000  0.00663700  0.68705100  1
  P  P33  1  0.95328200  0.01267900  0.19164400  1
  P  P34  1  0.88989400  0.72035000  0.38583600  1
  P  P35  1  0.88262700  0.70449500  0.88114100  1
  P  P36  1  0.76232500  0.36443800  0.77292700  1
  P  P37  1  0.75646400  0.36409300  0.26544800  1
  P  P38  1  0.72708900  0.11715100  0.52402900  1
  P  P39  1  0.73916900  0.13397200  0.02166600  1
  P  P40  1  0.63910100  0.79948700  0.63030000  1
  P  P41  1  0.61413300  0.79478900  0.13192700  1
  P  P42  1  0.54619200  0.48971500  0.94153000  1
  P  P43  1  0.53247300  0.47225100  0.43992200  1
  P  P44  1  0.45328200  0.98732100  0.80835600  1
  P  P45  1  0.45570000  0.99336300  0.31294900  1
  P  P46  1  0.38989400  0.27965000  0.61416400  1
  P  P47  1  0.38262700  0.29550500  0.11885900  1
  P  P48  1  0.25646400  0.63590700  0.73455200  1
  P  P49  1  0.26232500  0.63556200  0.22707300  1
  P  P50  1  0.23916900  0.86602800  0.97833400  1
  P  P51  1  0.22708900  0.88284900  0.47597100  1
  P  P52  1  0.13910100  0.20051300  0.36970000  1
  P  P53  1  0.11413300  0.20521100  0.86807300  1
  P  P54  1  0.03247300  0.52774900  0.56007800  1
  P  P55  1  0.04619200  0.51028500  0.05847000  1
  O  O56  1  0.99332400  0.64379100  0.07461100  1
  O  O57  1  0.99287600  0.67442000  0.56717600  1
  O  O58  1  0.99447800  0.80558800  0.35273700  1
  O  O59  1  0.00090200  0.78167300  0.85385100  1
  O  O60  1  0.97167700  0.91965100  0.62551100  1
  O  O61  1  0.97996800  0.91998500  0.13558200  1
  O  O62  1  0.97400900  0.45475300  0.99779500  1
  O  O63  1  0.94593100  0.46218800  0.51045900  1
  O  O64  1  0.93016700  0.57871000  0.38138300  1
  O  O65  1  0.91510500  0.55679700  0.88310500  1
  O  O66  1  0.89721000  0.39241200  0.74706000  1
  O  O67  1  0.89593800  0.39534600  0.24665300  1
  O  O68  1  0.87325000  0.76548600  0.45752500  1
  O  O69  1  0.84979400  0.75519300  0.94827600  1
  O  O70  1  0.80730100  0.99066400  0.51512900  1
  O  O71  1  0.83198100  0.02189400  0.00882300  1
  O  O72  1  0.81015500  0.01402000  0.70714900  1
  O  O73  1  0.80504900  0.01658100  0.20702000  1
  O  O74  1  0.79558600  0.22357000  0.48656000  1
  O  O75  1  0.79520700  0.25573100  0.98655200  1
  O  O76  1  0.76597000  0.33620400  0.84761500  1
  O  O77  1  0.74775500  0.31501400  0.33555000  1
  O  O78  1  0.77072600  0.72963000  0.83442300  1
  O  O79  1  0.76113200  0.74324700  0.34995300  1
  O  O80  1  0.76002300  0.77971500  0.58597600  1
  O  O81  1  0.72671200  0.77047300  0.08533400  1
  O  O82  1  0.72626900  0.15822500  0.59718200  1
  O  O83  1  0.73371600  0.16292200  0.09601800  1
  O  O84  1  0.70363900  0.24449500  0.73684700  1
  O  O85  1  0.70432900  0.25421300  0.22049600  1
  O  O86  1  0.69469500  0.48368100  0.95733400  1
  O  O87  1  0.67399600  0.48121200  0.46066100  1
  O  O88  1  0.67121100  0.47807200  0.75952800  1
  O  O89  1  0.67087200  0.48307500  0.25419700  1
  O  O90  1  0.66897700  0.74545000  0.69718000  1
  O  O91  1  0.64722600  0.74374300  0.19938400  1
  O  O92  1  0.60506200  0.10200900  0.99597400  1
  O  O93  1  0.58783700  0.09491900  0.49647000  1
  O  O94  1  0.59866400  0.94388600  0.63387300  1
  O  O95  1  0.58243500  0.94307100  0.13527800  1
  O  O96  1  0.52802300  0.04188600  0.74838900  1
  O  O97  1  0.53287100  0.05680200  0.25638100  1
  O  O98  1  0.52204300  0.58225900  0.88486800  1
  O  O99  1  0.51050200  0.53966800  0.37443500  1
  O  O100  1  0.49412900  0.72301100  0.10308200  1
  O  O101  1  0.52709700  0.72723900  0.59812400  1
  O  O102  1  0.50607400  0.85343100  0.82428200  1
  O  O103  1  0.50790100  0.85925200  0.32930000  1
  O  O104  1  0.49332400  0.35620900  0.92538900  1
  O  O105  1  0.49287600  0.32558000  0.43282400  1
  O  O106  1  0.49447800  0.19441200  0.64726300  1
  O  O107  1  0.50090200  0.21832700  0.14614900  1
  O  O108  1  0.47996800  0.08001500  0.86441800  1
  O  O109  1  0.47167700  0.08034900  0.37448900  1
  O  O110  1  0.47400900  0.54524700  0.00220500  1
  O  O111  1  0.44593100  0.53781200  0.48954100  1
  O  O112  1  0.43016700  0.42129000  0.61861700  1
  O  O113  1  0.41510500  0.44320300  0.11689500  1
  O  O114  1  0.39593800  0.60465400  0.75334700  1
  O  O115  1  0.39721000  0.60758800  0.25294000  1
  O  O116  1  0.37325000  0.23451400  0.54247500  1
  O  O117  1  0.34979400  0.24480700  0.05172400  1
  O  O118  1  0.33198100  0.97810600  0.99117700  1
  O  O119  1  0.30730100  0.00933600  0.48487100  1
  O  O120  1  0.30504900  0.98341900  0.79298000  1
  O  O121  1  0.31015500  0.98598000  0.29285100  1
  O  O122  1  0.29520700  0.74426900  0.01344800  1
  O  O123  1  0.29558600  0.77643000  0.51344000  1
  O  O124  1  0.24775500  0.68498600  0.66445000  1
  O  O125  1  0.26597000  0.66379600  0.15238500  1
  O  O126  1  0.26113200  0.25675300  0.65004700  1
  O  O127  1  0.27072600  0.27037000  0.16557700  1
  O  O128  1  0.26002300  0.22028500  0.41402400  1
  O  O129  1  0.22671200  0.22952700  0.91466600  1
  O  O130  1  0.22626900  0.84177500  0.40281800  1
  O  O131  1  0.23371600  0.83707800  0.90398200  1
  O  O132  1  0.20432900  0.74578700  0.77950400  1
  O  O133  1  0.20363900  0.75550500  0.26315300  1
  O  O134  1  0.17399600  0.51878800  0.53933900  1
  O  O135  1  0.19469500  0.51631900  0.04266600  1
  O  O136  1  0.17087200  0.51692500  0.74580300  1
  O  O137  1  0.17121100  0.52192800  0.24047200  1
  O  O138  1  0.16897700  0.25455000  0.30282000  1
  O  O139  1  0.14722600  0.25625700  0.80061600  1
  O  O140  1  0.08783700  0.90508100  0.50353000  1
  O  O141  1  0.10506200  0.89799100  0.00402600  1
  O  O142  1  0.09866400  0.05611400  0.36612700  1
  O  O143  1  0.08243500  0.05692900  0.86472200  1
  O  O144  1  0.03287100  0.94319800  0.74361900  1
  O  O145  1  0.02802300  0.95811400  0.25161100  1
  O  O146  1  0.01050200  0.46033200  0.62556500  1
  O  O147  1  0.02204300  0.41774100  0.11513200  1
  O  O148  1  0.02709700  0.27276100  0.40187600  1
  O  O149  1  0.99412900  0.27698900  0.89691800  1
  O  O150  1  0.00790100  0.14074800  0.67070000  1
  O  O151  1  0.00607400  0.14656900  0.17571800  1
