# generated using pymatgen
data_CrBi8O15
_symmetry_space_group_name_H-M   'P 1'
_cell_length_a   12.07080100
_cell_length_b   9.80200500
_cell_length_c   14.06205420
_cell_angle_alpha   76.07575345
_cell_angle_beta   90.00000000
_cell_angle_gamma   90.00000000
_symmetry_Int_Tables_number   1
_chemical_formula_structural   CrBi8O15
_chemical_formula_sum   'Cr4 Bi32 O60'
_cell_volume   1614.90380258
_cell_formula_units_Z   4
loop_
 _symmetry_equiv_pos_site_id
 _symmetry_equiv_pos_as_xyz
  1  'x, y, z'
loop_
 _atom_site_type_symbol
 _atom_site_label
 _atom_site_symmetry_multiplicity
 _atom_site_fract_x
 _atom_site_fract_y
 _atom_site_fract_z
 _atom_site_occupancy
  Cr  Cr0  1  0.25000000  0.35526900  0.48177700  1
  Cr  Cr1  1  0.25000000  0.73149100  0.75519000  1
  Cr  Cr2  1  0.75000000  0.64473100  0.51822300  1
  Cr  Cr3  1  0.75000000  0.26850900  0.24481000  1
  Bi  Bi4  1  0.75000000  0.34421000  0.73608400  1
  Bi  Bi5  1  0.41127500  0.66310700  0.51806800  1
  Bi  Bi6  1  0.57325800  0.65922700  0.24478200  1
  Bi  Bi7  1  0.75000000  0.66469200  0.02341800  1
  Bi  Bi8  1  0.58872500  0.33689300  0.48193200  1
  Bi  Bi9  1  0.07123700  0.67185100  0.01143000  1
  Bi  Bi10  1  0.55967400  0.95141300  0.38924200  1
  Bi  Bi11  1  0.57915000  0.01910100  0.87658300  1
  Bi  Bi12  1  0.91127500  0.33689300  0.48193200  1
  Bi  Bi13  1  0.05967400  0.04858700  0.61075800  1
  Bi  Bi14  1  0.39976400  0.31229800  0.23908100  1
  Bi  Bi15  1  0.75000000  0.96214400  0.12627200  1
  Bi  Bi16  1  0.25000000  0.65579000  0.26391600  1
  Bi  Bi17  1  0.42876300  0.67185100  0.01143000  1
  Bi  Bi18  1  0.60023600  0.68770200  0.76091900  1
  Bi  Bi19  1  0.89976400  0.68770200  0.76091900  1
  Bi  Bi20  1  0.92085000  0.01910100  0.87658300  1
  Bi  Bi21  1  0.57123700  0.32814900  0.98857000  1
  Bi  Bi22  1  0.92674200  0.65922700  0.24478200  1
  Bi  Bi23  1  0.92876300  0.32814900  0.98857000  1
  Bi  Bi24  1  0.42674200  0.34077300  0.75521800  1
  Bi  Bi25  1  0.25000000  0.33530800  0.97658200  1
  Bi  Bi26  1  0.25000000  0.99072800  0.35329200  1
  Bi  Bi27  1  0.94032600  0.95141300  0.38924200  1
  Bi  Bi28  1  0.42085000  0.98089900  0.12341700  1
  Bi  Bi29  1  0.44032600  0.04858700  0.61075800  1
  Bi  Bi30  1  0.25000000  0.03785600  0.87372800  1
  Bi  Bi31  1  0.08872500  0.66310700  0.51806800  1
  Bi  Bi32  1  0.07915000  0.98089900  0.12341700  1
  Bi  Bi33  1  0.10023600  0.31229800  0.23908100  1
  Bi  Bi34  1  0.07325800  0.34077300  0.75521800  1
  Bi  Bi35  1  0.75000000  0.00927200  0.64670800  1
  O  O36  1  0.47694100  0.74375400  0.37537000  1
  O  O37  1  0.58131800  0.88490200  0.19763000  1
  O  O38  1  0.75000000  0.30243400  0.12235700  1
  O  O39  1  0.25000000  0.46879000  0.19063000  1
  O  O40  1  0.75000000  0.09338100  0.28735100  1
  O  O41  1  0.75000000  0.81174300  0.52666500  1
  O  O42  1  0.86321800  0.33600100  0.28459100  1
  O  O43  1  0.57646400  0.60955000  0.09765400  1
  O  O44  1  0.75000000  0.80644700  0.75874900  1
  O  O45  1  0.63678200  0.33600100  0.28459100  1
  O  O46  1  0.25000000  0.19355300  0.24125100  1
  O  O47  1  0.60326100  0.28146600  0.83104100  1
  O  O48  1  0.75000000  0.10207800  0.76994500  1
  O  O49  1  0.25000000  0.69756600  0.87764300  1
  O  O50  1  0.92766500  0.10323800  0.01664700  1
  O  O51  1  0.13710400  0.43848300  0.42566500  1
  O  O52  1  0.75000000  0.63711900  0.40158400  1
  O  O53  1  0.41868200  0.11509800  0.80237000  1
  O  O54  1  0.54724900  0.12432300  0.47907700  1
  O  O55  1  0.63710400  0.56151700  0.57433500  1
  O  O56  1  0.07233500  0.89676200  0.98335300  1
  O  O57  1  0.36321800  0.66399900  0.71540900  1
  O  O58  1  0.89673900  0.28146600  0.83104100  1
  O  O59  1  0.36289600  0.43848300  0.42566500  1
  O  O60  1  0.07646400  0.39045000  0.90234600  1
  O  O61  1  0.93125700  0.93417800  0.70042200  1
  O  O62  1  0.91868200  0.88490200  0.19763000  1
  O  O63  1  0.42353600  0.39045000  0.90234600  1
  O  O64  1  0.56798800  0.71483400  0.90197900  1
  O  O65  1  0.95275100  0.12432300  0.47907700  1
  O  O66  1  0.43201200  0.28516600  0.09802100  1
  O  O67  1  0.06798800  0.28516600  0.09802100  1
  O  O68  1  0.25000000  0.28501700  0.82232800  1
  O  O69  1  0.75000000  0.71498300  0.17767200  1
  O  O70  1  0.93201200  0.71483400  0.90197900  1
  O  O71  1  0.75000000  0.89261800  0.98843100  1
  O  O72  1  0.08131800  0.11509800  0.80237000  1
  O  O73  1  0.13678200  0.66399900  0.71540900  1
  O  O74  1  0.97694100  0.25624600  0.62463000  1
  O  O75  1  0.04724900  0.87567700  0.52092300  1
  O  O76  1  0.42766500  0.89676200  0.98335300  1
  O  O77  1  0.02305900  0.74375400  0.37537000  1
  O  O78  1  0.92353600  0.60955000  0.09765400  1
  O  O79  1  0.25000000  0.18825700  0.47333500  1
  O  O80  1  0.45275100  0.87567700  0.52092300  1
  O  O81  1  0.75000000  0.26967900  0.53541800  1
  O  O82  1  0.25000000  0.73032100  0.46458200  1
  O  O83  1  0.10326100  0.71853400  0.16895900  1
  O  O84  1  0.06874300  0.06582200  0.29957800  1
  O  O85  1  0.57233500  0.10323800  0.01664700  1
  O  O86  1  0.86289600  0.56151700  0.57433500  1
  O  O87  1  0.43125700  0.06582200  0.29957800  1
  O  O88  1  0.52305900  0.25624600  0.62463000  1
  O  O89  1  0.25000000  0.36288100  0.59841600  1
  O  O90  1  0.25000000  0.89792200  0.23005500  1
  O  O91  1  0.25000000  0.90661900  0.71264900  1
  O  O92  1  0.25000000  0.10738200  0.01156900  1
  O  O93  1  0.75000000  0.53121000  0.80937000  1
  O  O94  1  0.56874300  0.93417800  0.70042200  1
  O  O95  1  0.39673900  0.71853400  0.16895900  1
