# generated using pymatgen
data_RbHSO4
_symmetry_space_group_name_H-M   'P 1'
_cell_length_a   4.78317100
_cell_length_b   14.69723700
_cell_length_c   15.13329219
_cell_angle_alpha   60.65813359
_cell_angle_beta   90.00000000
_cell_angle_gamma   90.00000000
_symmetry_Int_Tables_number   1
_chemical_formula_structural   RbHSO4
_chemical_formula_sum   'Rb8 H8 S8 O32'
_cell_volume   927.38009504
_cell_formula_units_Z   8
loop_
 _symmetry_equiv_pos_site_id
 _symmetry_equiv_pos_as_xyz
  1  'x, y, z'
loop_
 _atom_site_type_symbol
 _atom_site_label
 _atom_site_symmetry_multiplicity
 _atom_site_fract_x
 _atom_site_fract_y
 _atom_site_fract_z
 _atom_site_occupancy
  Rb  Rb0  1  0.93973400  0.87756700  0.90979500  1
  Rb  Rb1  1  0.06026600  0.87756700  0.40979500  1
  Rb  Rb2  1  0.53699500  0.61833300  0.83892100  1
  Rb  Rb3  1  0.46300500  0.61833300  0.33892100  1
  Rb  Rb4  1  0.32043800  0.12100500  0.59124200  1
  Rb  Rb5  1  0.67956200  0.12100500  0.09124200  1
  Rb  Rb6  1  0.86211300  0.39487300  0.67720600  1
  Rb  Rb7  1  0.13788700  0.39487300  0.17720600  1
  H  H8  1  0.36981000  0.87314900  0.61994600  1
  H  H9  1  0.63019000  0.87314900  0.11994600  1
  H  H10  1  0.67209000  0.73119900  0.55199500  1
  H  H11  1  0.32791000  0.73119900  0.05199500  1
  H  H12  1  0.05873400  0.16486600  0.78276500  1
  H  H13  1  0.94126600  0.16486600  0.28276500  1
  H  H14  1  0.45577600  0.35448800  0.88881700  1
  H  H15  1  0.54422400  0.35448800  0.38881700  1
  S  S16  1  0.93583700  0.86476400  0.67705700  1
  S  S17  1  0.06416300  0.86476400  0.17705700  1
  S  S18  1  0.35848100  0.61476500  0.59636500  1
  S  S19  1  0.64151900  0.61476500  0.09636500  1
  S  S20  1  0.46491500  0.10647200  0.84840400  1
  S  S21  1  0.53508500  0.10647200  0.34840400  1
  S  S22  1  0.04761200  0.36455000  0.94550800  1
  S  S23  1  0.95238800  0.36455000  0.44550800  1
  O  O24  1  0.86446600  0.95585600  0.68772200  1
  O  O25  1  0.13553400  0.95585600  0.18772200  1
  O  O26  1  0.70449300  0.83340400  0.63255600  1
  O  O27  1  0.29550700  0.83340400  0.13255600  1
  O  O28  1  0.04879800  0.77753600  0.77020000  1
  O  O29  1  0.95120200  0.77753600  0.27020000  1
  O  O30  1  0.17836100  0.90319100  0.59266500  1
  O  O31  1  0.82163900  0.90319100  0.09266500  1
  O  O32  1  0.29931000  0.55348100  0.54597700  1
  O  O33  1  0.70069000  0.55348100  0.04597700  1
  O  O34  1  0.54137100  0.56080600  0.68457500  1
  O  O35  1  0.45862900  0.56080600  0.18457500  1
  O  O36  1  0.54732300  0.71311900  0.51112800  1
  O  O37  1  0.45267700  0.71311900  0.01112800  1
  O  O38  1  0.11488200  0.66396300  0.61281400  1
  O  O39  1  0.88511800  0.66396300  0.11281400  1
  O  O40  1  0.45153300  0.00579900  0.84957600  1
  O  O41  1  0.54846700  0.00579900  0.34957600  1
  O  O42  1  0.36593800  0.10195300  0.94113000  1
  O  O43  1  0.63406200  0.10195300  0.44113000  1
  O  O44  1  0.25756200  0.18314000  0.75809100  1
  O  O45  1  0.74243800  0.18314000  0.25809100  1
  O  O46  1  0.73538700  0.15948200  0.81228200  1
  O  O47  1  0.26461300  0.15948200  0.31228200  1
  O  O48  1  0.06358700  0.47165300  0.92788000  1
  O  O49  1  0.93641300  0.47165300  0.42788000  1
  O  O50  1  0.25500400  0.35519200  0.86777200  1
  O  O51  1  0.74499600  0.35519200  0.36777200  1
  O  O52  1  0.13227200  0.28630500  0.04837100  1
  O  O53  1  0.86772800  0.28630500  0.54837100  1
  O  O54  1  0.77831500  0.33928600  0.91523900  1
  O  O55  1  0.22168500  0.33928600  0.41523900  1
