# generated using pymatgen
data_Na2PH11O8
_symmetry_space_group_name_H-M   'P 1'
_cell_length_a   6.43871600
_cell_length_b   7.17338600
_cell_length_c   9.31049800
_cell_angle_alpha   90.00000000
_cell_angle_beta   90.00000000
_cell_angle_gamma   90.00000000
_symmetry_Int_Tables_number   1
_chemical_formula_structural   Na2PH11O8
_chemical_formula_sum   'Na4 P2 H22 O16'
_cell_volume   430.02765075
_cell_formula_units_Z   2
loop_
 _symmetry_equiv_pos_site_id
 _symmetry_equiv_pos_as_xyz
  1  'x, y, z'
loop_
 _atom_site_type_symbol
 _atom_site_label
 _atom_site_symmetry_multiplicity
 _atom_site_fract_x
 _atom_site_fract_y
 _atom_site_fract_z
 _atom_site_occupancy
  Na  Na0  1  0.50239600  0.50000000  0.84735400  1
  Na  Na1  1  0.49760400  0.00000000  0.34735400  1
  Na  Na2  1  0.46079400  0.50000000  0.27154900  1
  Na  Na3  1  0.53920600  0.00000000  0.77154900  1
  P  P4  1  0.85313400  0.50000000  0.50199500  1
  P  P5  1  0.14686600  0.00000000  0.00199500  1
  H  H6  1  0.89828500  0.50000000  0.35250800  1
  H  H7  1  0.10171500  0.00000000  0.85250800  1
  H  H8  1  0.21789800  0.71365500  0.64051700  1
  H  H9  1  0.21789800  0.28634500  0.64051700  1
  H  H10  1  0.78210200  0.78634500  0.14051700  1
  H  H11  1  0.78210200  0.21365500  0.14051700  1
  H  H12  1  0.45147000  0.66586400  0.60549000  1
  H  H13  1  0.45147000  0.33413600  0.60549000  1
  H  H14  1  0.54853000  0.83413600  0.10549000  1
  H  H15  1  0.54853000  0.16586400  0.10549000  1
  H  H16  1  0.81368000  0.88850400  0.54353200  1
  H  H17  1  0.81368000  0.11149600  0.54353200  1
  H  H18  1  0.18632000  0.61149600  0.04353200  1
  H  H19  1  0.18632000  0.38850400  0.04353200  1
  H  H20  1  0.85178900  0.70860600  0.74820300  1
  H  H21  1  0.85178900  0.29139400  0.74820300  1
  H  H22  1  0.14821100  0.79139400  0.24820300  1
  H  H23  1  0.14821100  0.20860600  0.24820300  1
  H  H24  1  0.86612500  0.74715100  0.91529400  1
  H  H25  1  0.86612500  0.25284900  0.91529400  1
  H  H26  1  0.13387500  0.75284900  0.41529400  1
  H  H27  1  0.13387500  0.24715100  0.41529400  1
  O  O28  1  0.61554000  0.50000000  0.51556500  1
  O  O29  1  0.38446000  0.00000000  0.01556500  1
  O  O30  1  0.95524400  0.67949600  0.56298000  1
  O  O31  1  0.95524400  0.32050400  0.56298000  1
  O  O32  1  0.04475600  0.82050400  0.06298000  1
  O  O33  1  0.04475600  0.17949600  0.06298000  1
  O  O34  1  0.36138900  0.73197000  0.67523100  1
  O  O35  1  0.36138900  0.26803000  0.67523100  1
  O  O36  1  0.63861100  0.76803000  0.17523100  1
  O  O37  1  0.63861100  0.23197000  0.17523100  1
  O  O38  1  0.72240300  0.00000000  0.54025900  1
  O  O39  1  0.27759700  0.50000000  0.04025900  1
  O  O40  1  0.76726100  0.73034100  0.83533800  1
  O  O41  1  0.76726100  0.26965900  0.83533800  1
  O  O42  1  0.23273900  0.76965900  0.33533800  1
  O  O43  1  0.23273900  0.23034100  0.33533800  1
