# generated using pymatgen
data_Na6HfH8S5O24
_symmetry_space_group_name_H-M   'P 1'
_cell_length_a   11.29002100
_cell_length_b   8.63152000
_cell_length_c   10.79416118
_cell_angle_alpha   81.30553449
_cell_angle_beta   90.00000000
_cell_angle_gamma   90.00000000
_symmetry_Int_Tables_number   1
_chemical_formula_structural   Na6HfH8S5O24
_chemical_formula_sum   'Na12 Hf2 H16 S10 O48'
_cell_volume   1039.80364281
_cell_formula_units_Z   2
loop_
 _symmetry_equiv_pos_site_id
 _symmetry_equiv_pos_as_xyz
  1  'x, y, z'
loop_
 _atom_site_type_symbol
 _atom_site_label
 _atom_site_symmetry_multiplicity
 _atom_site_fract_x
 _atom_site_fract_y
 _atom_site_fract_z
 _atom_site_occupancy
  Na  Na0  1  0.17502600  0.05392700  0.50649400  1
  Na  Na1  1  0.67502600  0.94607300  0.49350600  1
  Na  Na2  1  0.80822200  0.53119100  0.02064300  1
  Na  Na3  1  0.30822200  0.46880900  0.97935700  1
  Na  Na4  1  0.52919300  0.58958200  0.46734900  1
  Na  Na5  1  0.02919300  0.41041800  0.53265100  1
  Na  Na6  1  0.03035500  0.20710300  0.04930100  1
  Na  Na7  1  0.53035500  0.79289700  0.95069900  1
  Na  Na8  1  0.17660300  0.69287800  0.72917900  1
  Na  Na9  1  0.67660300  0.30712200  0.27082100  1
  Na  Na10  1  0.43663900  0.97734400  0.22617500  1
  Na  Na11  1  0.93663900  0.02265600  0.77382500  1
  Hf  Hf12  1  0.49794100  0.22285700  0.72701700  1
  Hf  Hf13  1  0.99794100  0.77714300  0.27298300  1
  H  H14  1  0.84270900  0.53463300  0.38170900  1
  H  H15  1  0.34270900  0.46536700  0.61829100  1
  H  H16  1  0.92473300  0.45269100  0.29075200  1
  H  H17  1  0.42473300  0.54730900  0.70924800  1
  H  H18  1  0.34104400  0.02417400  0.97105600  1
  H  H19  1  0.84104400  0.97582600  0.02894400  1
  H  H20  1  0.76933200  0.12164500  0.97308900  1
  H  H21  1  0.26933200  0.87835500  0.02691100  1
  H  H22  1  0.95731500  0.48777900  0.82696400  1
  H  H23  1  0.45731500  0.51222100  0.17303600  1
  H  H24  1  0.88693400  0.33631100  0.84111400  1
  H  H25  1  0.38693400  0.66368900  0.15888600  1
  H  H26  1  0.24322000  0.26712000  0.21768300  1
  H  H27  1  0.74322000  0.73288000  0.78231700  1
  H  H28  1  0.16924600  0.41874600  0.19483000  1
  H  H29  1  0.66924600  0.58125400  0.80517000  1
  S  S30  1  0.73167000  0.30165600  0.61898100  1
  S  S31  1  0.23167000  0.69834400  0.38101900  1
  S  S32  1  0.19817600  0.24876600  0.77803700  1
  S  S33  1  0.69817600  0.75123400  0.22196300  1
  S  S34  1  0.43988500  0.22482600  0.40330500  1
  S  S35  1  0.93988500  0.77517400  0.59669500  1
  S  S36  1  0.42518200  0.84669700  0.67889900  1
  S  S37  1  0.92518200  0.15330300  0.32110100  1
  S  S38  1  0.55295300  0.26116600  0.98378100  1
  S  S39  1  0.05295300  0.73883400  0.01621900  1
  O  O40  1  0.65326800  0.38899800  0.70125000  1
  O  O41  1  0.15326800  0.61100200  0.29875000  1
  O  O42  1  0.66188300  0.14935400  0.62987000  1
  O  O43  1  0.16188300  0.85064600  0.37013000  1
  O  O44  1  0.73288800  0.38847200  0.49104300  1
  O  O45  1  0.23288800  0.61152800  0.50895700  1
  O  O46  1  0.85180100  0.27264300  0.67012200  1
  O  O47  1  0.35180100  0.72735700  0.32987800  1
  O  O48  1  0.32504600  0.18312000  0.79910000  1
  O  O49  1  0.82504600  0.81688000  0.20090000  1
  O  O50  1  0.16648400  0.24555800  0.64581700  1
  O  O51  1  0.66648400  0.75444200  0.35418300  1
  O  O52  1  0.12072400  0.14641500  0.86425600  1
  O  O53  1  0.62072400  0.85358500  0.13574400  1
  O  O54  1  0.19990500  0.41198900  0.80559300  1
  O  O55  1  0.69990500  0.58801100  0.19440700  1
  O  O56  1  0.43331500  0.21823800  0.54491000  1
  O  O57  1  0.93331500  0.78176200  0.45509000  1
  O  O58  1  0.53470700  0.11835200  0.37225800  1
  O  O59  1  0.03470700  0.88164800  0.62774200  1
  O  O60  1  0.46873200  0.38876600  0.34835500  1
  O  O61  1  0.96873200  0.61123400  0.65164500  1
  O  O62  1  0.32403600  0.17278700  0.36052900  1
  O  O63  1  0.82403600  0.82721300  0.63947100  1
  O  O64  1  0.48508400  0.96973200  0.74574400  1
  O  O65  1  0.98508400  0.03026800  0.25425600  1
  O  O66  1  0.50563100  0.80812800  0.58042700  1
  O  O67  1  0.00563100  0.19187200  0.41957300  1
  O  O68  1  0.40868800  0.70455500  0.77728800  1
  O  O69  1  0.90868800  0.29544500  0.22271200  1
  O  O70  1  0.30898000  0.90267800  0.63156300  1
  O  O71  1  0.80898000  0.09732200  0.36843700  1
  O  O72  1  0.57720000  0.12775900  0.90731900  1
  O  O73  1  0.07720000  0.87224100  0.09268100  1
  O  O74  1  0.49549100  0.37945000  0.88380200  1
  O  O75  1  0.99549100  0.62055000  0.11619800  1
  O  O76  1  0.46915700  0.21380800  0.08539000  1
  O  O77  1  0.96915700  0.78619200  0.91461000  1
  O  O78  1  0.66546300  0.31661300  0.02952500  1
  O  O79  1  0.16546300  0.68338700  0.97047500  1
  O  O80  1  0.42284900  0.46133600  0.65469200  1
  O  O81  1  0.92284900  0.53866400  0.34530800  1
  O  O82  1  0.84594700  0.07056000  0.96651300  1
  O  O83  1  0.34594700  0.92944000  0.03348700  1
  O  O84  1  0.92684000  0.40547300  0.89184300  1
  O  O85  1  0.42684000  0.59452700  0.10815700  1
  O  O86  1  0.19530600  0.33165000  0.15274500  1
  O  O87  1  0.69530600  0.66835000  0.84725500  1
