# generated using pymatgen
data_Dy2Zr2O7
_symmetry_space_group_name_H-M   'P 1'
_cell_length_a   7.48601363
_cell_length_b   7.48601363
_cell_length_c   7.48601363
_cell_angle_alpha   60.00000000
_cell_angle_beta   60.00000000
_cell_angle_gamma   60.00000000
_symmetry_Int_Tables_number   1
_chemical_formula_structural   Dy2Zr2O7
_chemical_formula_sum   'Dy4 Zr4 O14'
_cell_volume   296.64486996
_cell_formula_units_Z   2
loop_
 _symmetry_equiv_pos_site_id
 _symmetry_equiv_pos_as_xyz
  1  'x, y, z'
loop_
 _atom_site_type_symbol
 _atom_site_label
 _atom_site_symmetry_multiplicity
 _atom_site_fract_x
 _atom_site_fract_y
 _atom_site_fract_z
 _atom_site_occupancy
  Dy  Dy0  1  0.62500000  0.62500000  0.62500000  1
  Dy  Dy1  1  0.12500000  0.62500000  0.62500000  1
  Dy  Dy2  1  0.62500000  0.12500000  0.62500000  1
  Dy  Dy3  1  0.62500000  0.62500000  0.12500000  1
  Zr  Zr4  1  0.12500000  0.12500000  0.62500000  1
  Zr  Zr5  1  0.12500000  0.62500000  0.12500000  1
  Zr  Zr6  1  0.62500000  0.12500000  0.12500000  1
  Zr  Zr7  1  0.12500000  0.12500000  0.12500000  1
  O  O8  1  0.50000000  0.50000000  0.50000000  1
  O  O9  1  0.75000000  0.75000000  0.75000000  1
  O  O10  1  0.21610800  0.78389200  0.78389200  1
  O  O11  1  0.21610800  0.21610800  0.78389200  1
  O  O12  1  0.78389200  0.21610800  0.78389200  1
  O  O13  1  0.78389200  0.78389200  0.21610800  1
  O  O14  1  0.21610800  0.78389200  0.21610800  1
  O  O15  1  0.46610800  0.03389200  0.03389200  1
  O  O16  1  0.78389200  0.21610800  0.21610800  1
  O  O17  1  0.03389200  0.46610800  0.03389200  1
  O  O18  1  0.46610800  0.03389200  0.46610800  1
  O  O19  1  0.46610800  0.46610800  0.03389200  1
  O  O20  1  0.03389200  0.03389200  0.46610800  1
  O  O21  1  0.03389200  0.46610800  0.46610800  1
