# generated using pymatgen
data_Er2TeO2
_symmetry_space_group_name_H-M   'P 1'
_cell_length_a   3.87802237
_cell_length_b   3.87802237
_cell_length_c   7.19902400
_cell_angle_alpha   90.00000000
_cell_angle_beta   90.00000000
_cell_angle_gamma   120.00000638
_symmetry_Int_Tables_number   1
_chemical_formula_structural   Er2TeO2
_chemical_formula_sum   'Er2 Te1 O2'
_cell_volume   93.76156462
_cell_formula_units_Z   1
loop_
 _symmetry_equiv_pos_site_id
 _symmetry_equiv_pos_as_xyz
  1  'x, y, z'
loop_
 _atom_site_type_symbol
 _atom_site_label
 _atom_site_symmetry_multiplicity
 _atom_site_fract_x
 _atom_site_fract_y
 _atom_site_fract_z
 _atom_site_occupancy
  Er  Er0  1  0.66666700  0.33333300  0.19419600  1
  Er  Er1  1  0.33333300  0.66666700  0.80580400  1
  Te  Te2  1  0.00000000  0.00000000  0.50000000  1
  O  O3  1  0.66666700  0.33333300  0.88008700  1
  O  O4  1  0.33333300  0.66666700  0.11991300  1
