# generated using pymatgen
data_BaSrI4
_symmetry_space_group_name_H-M   'P 1'
_cell_length_a   9.95825354
_cell_length_b   9.95825354
_cell_length_c   9.95825370
_cell_angle_alpha   34.28287297
_cell_angle_beta   34.28287297
_cell_angle_gamma   34.28287522
_symmetry_Int_Tables_number   1
_chemical_formula_structural   BaSrI4
_chemical_formula_sum   'Ba1 Sr1 I4'
_cell_volume   279.42357330
_cell_formula_units_Z   1
loop_
 _symmetry_equiv_pos_site_id
 _symmetry_equiv_pos_as_xyz
  1  'x, y, z'
loop_
 _atom_site_type_symbol
 _atom_site_label
 _atom_site_symmetry_multiplicity
 _atom_site_fract_x
 _atom_site_fract_y
 _atom_site_fract_z
 _atom_site_occupancy
  Ba  Ba0  1  0.00000000  0.00000000  0.00000000  1
  Sr  Sr1  1  0.50000000  0.50000000  0.50000000  1
  I  I2  1  0.62280100  0.62280100  0.62280100  1
  I  I3  1  0.87090300  0.87090300  0.87090300  1
  I  I4  1  0.12909700  0.12909700  0.12909700  1
  I  I5  1  0.37719900  0.37719900  0.37719900  1
