# generated using pymatgen
data_Ga2HgO4
_symmetry_space_group_name_H-M   'P 1'
_cell_length_a   6.24820906
_cell_length_b   6.24820906
_cell_length_c   6.24820906
_cell_angle_alpha   60.00000000
_cell_angle_beta   60.00000000
_cell_angle_gamma   60.00000000
_symmetry_Int_Tables_number   1
_chemical_formula_structural   Ga2HgO4
_chemical_formula_sum   'Ga4 Hg2 O8'
_cell_volume   172.48512983
_cell_formula_units_Z   2
loop_
 _symmetry_equiv_pos_site_id
 _symmetry_equiv_pos_as_xyz
  1  'x, y, z'
loop_
 _atom_site_type_symbol
 _atom_site_label
 _atom_site_symmetry_multiplicity
 _atom_site_fract_x
 _atom_site_fract_y
 _atom_site_fract_z
 _atom_site_occupancy
  Ga  Ga0  1  0.12500000  0.12500000  0.62500000  1
  Ga  Ga1  1  0.12500000  0.62500000  0.12500000  1
  Ga  Ga2  1  0.62500000  0.12500000  0.12500000  1
  Ga  Ga3  1  0.12500000  0.12500000  0.12500000  1
  Hg  Hg4  1  0.75000000  0.75000000  0.75000000  1
  Hg  Hg5  1  0.50000000  0.50000000  0.50000000  1
  O  O6  1  0.89518200  0.89518200  0.89518200  1
  O  O7  1  0.31445300  0.89518200  0.89518200  1
  O  O8  1  0.35481800  0.35481800  0.93554700  1
  O  O9  1  0.35481800  0.93554700  0.35481800  1
  O  O10  1  0.89518200  0.31445300  0.89518200  1
  O  O11  1  0.89518200  0.89518200  0.31445300  1
  O  O12  1  0.93554700  0.35481800  0.35481800  1
  O  O13  1  0.35481800  0.35481800  0.35481800  1
