# generated using pymatgen
data_Na5Ti3O8
_symmetry_space_group_name_H-M   'P 1'
_cell_length_a   6.47711579
_cell_length_b   6.47711579
_cell_length_c   6.47711583
_cell_angle_alpha   56.87106973
_cell_angle_beta   56.87106973
_cell_angle_gamma   56.87106717
_symmetry_Int_Tables_number   1
_chemical_formula_structural   Na5Ti3O8
_chemical_formula_sum   'Na5 Ti3 O8'
_cell_volume   178.27408576
_cell_formula_units_Z   1
loop_
 _symmetry_equiv_pos_site_id
 _symmetry_equiv_pos_as_xyz
  1  'x, y, z'
loop_
 _atom_site_type_symbol
 _atom_site_label
 _atom_site_symmetry_multiplicity
 _atom_site_fract_x
 _atom_site_fract_y
 _atom_site_fract_z
 _atom_site_occupancy
  Na  Na0  1  0.00000000  0.50000000  0.00000000  1
  Na  Na1  1  0.00000000  0.00000000  0.00000000  1
  Na  Na2  1  0.50000000  0.00000000  0.00000000  1
  Na  Na3  1  0.00000000  0.00000000  0.50000000  1
  Na  Na4  1  0.50000000  0.50000000  0.50000000  1
  Ti  Ti5  1  0.50000000  0.50000000  0.00000000  1
  Ti  Ti6  1  0.50000000  0.00000000  0.50000000  1
  Ti  Ti7  1  0.00000000  0.50000000  0.50000000  1
  O  O8  1  0.73566300  0.73566300  0.73566300  1
  O  O9  1  0.24907000  0.24907000  0.70190600  1
  O  O10  1  0.70190600  0.24907000  0.24907000  1
  O  O11  1  0.29809400  0.75093000  0.75093000  1
  O  O12  1  0.75093000  0.29809400  0.75093000  1
  O  O13  1  0.26433700  0.26433700  0.26433700  1
  O  O14  1  0.24907000  0.70190600  0.24907000  1
  O  O15  1  0.75093000  0.75093000  0.29809400  1
