# generated using pymatgen
data_Na2Ti2O5
_symmetry_space_group_name_H-M   'P 1'
_cell_length_a   12.14954200
_cell_length_b   5.49714800
_cell_length_c   10.76950635
_cell_angle_alpha   59.86091309
_cell_angle_beta   90.00000000
_cell_angle_gamma   90.00000000
_symmetry_Int_Tables_number   1
_chemical_formula_structural   Na2Ti2O5
_chemical_formula_sum   'Na8 Ti8 O20'
_cell_volume   622.03293420
_cell_formula_units_Z   4
loop_
 _symmetry_equiv_pos_site_id
 _symmetry_equiv_pos_as_xyz
  1  'x, y, z'
loop_
 _atom_site_type_symbol
 _atom_site_label
 _atom_site_symmetry_multiplicity
 _atom_site_fract_x
 _atom_site_fract_y
 _atom_site_fract_z
 _atom_site_occupancy
  Na  Na0  1  0.52865300  0.08215300  0.61987000  1
  Na  Na1  1  0.99623200  0.58417900  0.62941600  1
  Na  Na2  1  0.49623200  0.41582100  0.87058400  1
  Na  Na3  1  0.02865300  0.91784700  0.88013000  1
  Na  Na4  1  0.97134700  0.08215300  0.11987000  1
  Na  Na5  1  0.50376800  0.58417900  0.12941600  1
  Na  Na6  1  0.00376800  0.41582100  0.37058400  1
  Na  Na7  1  0.47134700  0.91784700  0.38013000  1
  Ti  Ti8  1  0.69292100  0.63083700  0.55786400  1
  Ti  Ti9  1  0.82472100  0.01741700  0.67305700  1
  Ti  Ti10  1  0.32472100  0.98258300  0.82694300  1
  Ti  Ti11  1  0.19292100  0.36916300  0.94213600  1
  Ti  Ti12  1  0.80707900  0.63083700  0.05786400  1
  Ti  Ti13  1  0.67527900  0.01741700  0.17305700  1
  Ti  Ti14  1  0.17527900  0.98258300  0.32694300  1
  Ti  Ti15  1  0.30707900  0.36916300  0.44213600  1
  O  O16  1  0.71144700  0.27525200  0.57858900  1
  O  O17  1  0.56500100  0.64197300  0.63002600  1
  O  O18  1  0.95656700  0.15844700  0.61945900  1
  O  O19  1  0.80965500  0.71329100  0.64286100  1
  O  O20  1  0.31814200  0.10084000  0.63381300  1
  O  O21  1  0.30965500  0.28670900  0.85713900  1
  O  O22  1  0.81814200  0.89916000  0.86618700  1
  O  O23  1  0.45656700  0.84155300  0.88054100  1
  O  O24  1  0.06500100  0.35802700  0.86997400  1
  O  O25  1  0.21144700  0.72474800  0.92141100  1
  O  O26  1  0.78855300  0.27525200  0.07858900  1
  O  O27  1  0.93499900  0.64197300  0.13002600  1
  O  O28  1  0.54343300  0.15844700  0.11945900  1
  O  O29  1  0.18185800  0.10084000  0.13381300  1
  O  O30  1  0.69034500  0.71329100  0.14286100  1
  O  O31  1  0.68185800  0.89916000  0.36618700  1
  O  O32  1  0.19034500  0.28670900  0.35713900  1
  O  O33  1  0.04343300  0.84155300  0.38054100  1
  O  O34  1  0.43499900  0.35802700  0.36997400  1
  O  O35  1  0.28855300  0.72474800  0.42141100  1
