# generated using pymatgen
data_LiLaNb4O12
_symmetry_space_group_name_H-M   'P 1'
_cell_length_a   9.79695558
_cell_length_b   9.79695558
_cell_length_c   11.30451180
_cell_angle_alpha   72.89787075
_cell_angle_beta   72.89787075
_cell_angle_gamma   47.96977478
_symmetry_Int_Tables_number   1
_chemical_formula_structural   LiLaNb4O12
_chemical_formula_sum   'Li3 La3 Nb12 O36'
_cell_volume   763.04872217
_cell_formula_units_Z   3
loop_
 _symmetry_equiv_pos_site_id
 _symmetry_equiv_pos_as_xyz
  1  'x, y, z'
loop_
 _atom_site_type_symbol
 _atom_site_label
 _atom_site_symmetry_multiplicity
 _atom_site_fract_x
 _atom_site_fract_y
 _atom_site_fract_z
 _atom_site_occupancy
  Li  Li0  1  0.16640900  0.16640900  0.66725600  1
  Li  Li1  1  0.66687400  0.66687400  0.16632500  1
  Li  Li2  1  0.83299500  0.83299500  0.33354200  1
  La  La3  1  0.33393300  0.33393300  0.33311200  1
  La  La4  1  0.66625700  0.66625700  0.66780500  1
  La  La5  1  0.99982400  0.99982400  0.99896600  1
  Nb  Nb6  1  0.58652600  0.08625000  0.58623200  1
  Nb  Nb7  1  0.74581800  0.24883600  0.74924000  1
  Nb  Nb8  1  0.57998700  0.08472100  0.07937200  1
  Nb  Nb9  1  0.08472100  0.57998700  0.07937200  1
  Nb  Nb10  1  0.75145600  0.25163400  0.25118900  1
  Nb  Nb11  1  0.91770500  0.41818100  0.91830100  1
  Nb  Nb12  1  0.91523600  0.41337500  0.41576900  1
  Nb  Nb13  1  0.24883600  0.74581800  0.74924000  1
  Nb  Nb14  1  0.08625000  0.58652600  0.58623200  1
  Nb  Nb15  1  0.41337500  0.91523600  0.41576900  1
  Nb  Nb16  1  0.41818100  0.91770500  0.91830100  1
  Nb  Nb17  1  0.25163400  0.75145600  0.25118900  1
  O  O18  1  0.68380500  0.16233400  0.92307700  1
  O  O19  1  0.66850700  0.16288000  0.16855400  1
  O  O20  1  0.66680900  0.16678200  0.66681500  1
  O  O21  1  0.50494100  0.00806600  0.25666700  1
  O  O22  1  0.65300400  0.16497300  0.40964700  1
  O  O23  1  0.17571000  0.17571000  0.41913600  1
  O  O24  1  0.15795300  0.15795300  0.91375300  1
  O  O25  1  0.33557300  0.33557300  0.09663500  1
  O  O26  1  0.32709100  0.32709100  0.57115100  1
  O  O27  1  0.49197800  0.49197800  0.24917200  1
  O  O28  1  0.00633200  0.00633200  0.76153000  1
  O  O29  1  0.16497300  0.65300400  0.40964700  1
  O  O30  1  0.00806600  0.50494100  0.25666700  1
  O  O31  1  0.83420400  0.32166400  0.07792400  1
  O  O32  1  0.16678200  0.66680900  0.66681500  1
  O  O33  1  0.16288000  0.66850700  0.16855400  1
  O  O34  1  0.83649500  0.33203900  0.83228200  1
  O  O35  1  0.99935400  0.50061800  0.49901100  1
  O  O36  1  0.98724400  0.49820300  0.74182400  1
  O  O37  1  0.83548000  0.34622800  0.59086600  1
  O  O38  1  0.16233400  0.68380500  0.92307700  1
  O  O39  1  0.82546300  0.34818900  0.32607400  1
  O  O40  1  0.98524000  0.50777200  0.00724100  1
  O  O41  1  0.51011400  0.51011400  0.74964800  1
  O  O42  1  0.66387600  0.66387600  0.90647000  1
  O  O43  1  0.82362500  0.82362500  0.57924300  1
  O  O44  1  0.84066500  0.84066500  0.08894900  1
  O  O45  1  0.67211800  0.67211800  0.42493400  1
  O  O46  1  0.99504400  0.99504400  0.23945400  1
  O  O47  1  0.50777200  0.98524000  0.00724100  1
  O  O48  1  0.34818900  0.82546300  0.32607400  1
  O  O49  1  0.34622800  0.83548000  0.59086600  1
  O  O50  1  0.49820300  0.98724400  0.74182400  1
  O  O51  1  0.50061800  0.99935400  0.49901100  1
  O  O52  1  0.33203900  0.83649500  0.83228200  1
  O  O53  1  0.32166400  0.83420400  0.07792400  1
