# generated using pymatgen
data_V3O5F
_symmetry_space_group_name_H-M   'P 1'
_cell_length_a   4.57547700
_cell_length_b   4.57186700
_cell_length_c   10.31604789
_cell_angle_alpha   63.74205026
_cell_angle_beta   90.00000000
_cell_angle_gamma   90.00000000
_symmetry_Int_Tables_number   1
_chemical_formula_structural   V3O5F
_chemical_formula_sum   'V6 O10 F2'
_cell_volume   193.52827154
_cell_formula_units_Z   2
loop_
 _symmetry_equiv_pos_site_id
 _symmetry_equiv_pos_as_xyz
  1  'x, y, z'
loop_
 _atom_site_type_symbol
 _atom_site_label
 _atom_site_symmetry_multiplicity
 _atom_site_fract_x
 _atom_site_fract_y
 _atom_site_fract_z
 _atom_site_occupancy
  V  V0  1  0.24973400  0.98436000  0.00722200  1
  V  V1  1  0.21766100  0.69543600  0.33288400  1
  V  V2  1  0.24859800  0.33733500  0.65304600  1
  V  V3  1  0.75140200  0.33733500  0.15304600  1
  V  V4  1  0.78233900  0.69543600  0.83288400  1
  V  V5  1  0.75026600  0.98436000  0.50722200  1
  O  O6  1  0.04330900  0.61627700  0.17394700  1
  O  O7  1  0.05415300  0.30659500  0.49741200  1
  O  O8  1  0.05562700  0.97003100  0.83170800  1
  O  O9  1  0.94584700  0.30659500  0.99741200  1
  O  O10  1  0.94437300  0.97003100  0.33170800  1
  O  O11  1  0.95669100  0.61627700  0.67394700  1
  O  O12  1  0.55932500  0.69242800  0.99691900  1
  O  O13  1  0.54501700  0.02908600  0.67416400  1
  O  O14  1  0.45498300  0.02908600  0.17416400  1
  O  O15  1  0.44067500  0.69242800  0.49691900  1
  F  F16  1  0.54555100  0.36780900  0.33313600  1
  F  F17  1  0.45444900  0.36780900  0.83313600  1
