# generated using pymatgen
data_Fe4OF7
_symmetry_space_group_name_H-M   'P 1'
_cell_length_a   4.80639900
_cell_length_b   5.81255600
_cell_length_c   10.91329601
_cell_angle_alpha   81.99232440
_cell_angle_beta   90.00000000
_cell_angle_gamma   90.00000000
_symmetry_Int_Tables_number   1
_chemical_formula_structural   Fe4OF7
_chemical_formula_sum   'Fe8 O2 F14'
_cell_volume   301.91695357
_cell_formula_units_Z   2
loop_
 _symmetry_equiv_pos_site_id
 _symmetry_equiv_pos_as_xyz
  1  'x, y, z'
loop_
 _atom_site_type_symbol
 _atom_site_label
 _atom_site_symmetry_multiplicity
 _atom_site_fract_x
 _atom_site_fract_y
 _atom_site_fract_z
 _atom_site_occupancy
  Fe  Fe0  1  0.51434200  0.13293200  0.37463400  1
  Fe  Fe1  1  0.48754800  0.62670500  0.86801600  1
  Fe  Fe2  1  0.48103500  0.39629000  0.63063100  1
  Fe  Fe3  1  0.50311100  0.87794400  0.12393600  1
  Fe  Fe4  1  0.98754800  0.37329500  0.13198400  1
  Fe  Fe5  1  0.98103500  0.60371000  0.36936900  1
  Fe  Fe6  1  0.01434200  0.86706800  0.62536600  1
  Fe  Fe7  1  0.00311100  0.12205600  0.87606400  1
  O  O8  1  0.80937600  0.36219800  0.30865800  1
  O  O9  1  0.30937600  0.63780200  0.69134200  1
  F  F10  1  0.79441500  0.59459300  0.53911700  1
  F  F11  1  0.80453600  0.84818100  0.80030200  1
  F  F12  1  0.80035700  0.09994800  0.04911400  1
  F  F13  1  0.70041400  0.60488300  0.04614800  1
  F  F14  1  0.70921100  0.84770500  0.30129400  1
  F  F15  1  0.70249400  0.34069000  0.79011700  1
  F  F16  1  0.69316300  0.11357900  0.56224800  1
  F  F17  1  0.30035700  0.90005200  0.95088600  1
  F  F18  1  0.29441500  0.40540700  0.46088300  1
  F  F19  1  0.30453600  0.15181900  0.19969800  1
  F  F20  1  0.20921100  0.15229500  0.69870600  1
  F  F21  1  0.20041400  0.39511700  0.95385200  1
  F  F22  1  0.20249400  0.65931000  0.20988300  1
  F  F23  1  0.19316300  0.88642100  0.43775200  1
