# generated using pymatgen
data_Mn3OF5
_symmetry_space_group_name_H-M   'P 1'
_cell_length_a   5.91220281
_cell_length_b   5.91220281
_cell_length_c   7.53947703
_cell_angle_alpha   73.06038395
_cell_angle_beta   73.06038395
_cell_angle_gamma   74.27467259
_symmetry_Int_Tables_number   1
_chemical_formula_structural   Mn3OF5
_chemical_formula_sum   'Mn6 O2 F10'
_cell_volume   236.12227437
_cell_formula_units_Z   2
loop_
 _symmetry_equiv_pos_site_id
 _symmetry_equiv_pos_as_xyz
  1  'x, y, z'
loop_
 _atom_site_type_symbol
 _atom_site_label
 _atom_site_symmetry_multiplicity
 _atom_site_fract_x
 _atom_site_fract_y
 _atom_site_fract_z
 _atom_site_occupancy
  Mn  Mn0  1  0.50000000  0.50000000  0.00000000  1
  Mn  Mn1  1  0.15091200  0.15091200  0.84425000  1
  Mn  Mn2  1  0.50000000  0.50000000  0.50000000  1
  Mn  Mn3  1  0.15780500  0.15780500  0.32078000  1
  Mn  Mn4  1  0.84219500  0.84219500  0.67922000  1
  Mn  Mn5  1  0.84908800  0.84908800  0.15575000  1
  O  O6  1  0.06187600  0.06187600  0.12040800  1
  O  O7  1  0.93812400  0.93812400  0.87959200  1
  F  F8  1  0.47566500  0.85714300  0.82545600  1
  F  F9  1  0.79811700  0.20188300  0.50000000  1
  F  F10  1  0.74872500  0.74872500  0.44837600  1
  F  F11  1  0.37762800  0.37762800  0.80642100  1
  F  F12  1  0.62237200  0.62237200  0.19357900  1
  F  F13  1  0.25127500  0.25127500  0.55162400  1
  F  F14  1  0.20188300  0.79811700  0.50000000  1
  F  F15  1  0.85714300  0.47566500  0.82545600  1
  F  F16  1  0.52433500  0.14285700  0.17454400  1
  F  F17  1  0.14285700  0.52433500  0.17454400  1
