# generated using pymatgen
data_Al11InO17
_symmetry_space_group_name_H-M   'P 1'
_cell_length_a   5.65614676
_cell_length_b   5.65614676
_cell_length_c   23.06173300
_cell_angle_alpha   90.00000000
_cell_angle_beta   90.00000000
_cell_angle_gamma   120.00000888
_symmetry_Int_Tables_number   1
_chemical_formula_structural   Al11InO17
_chemical_formula_sum   'Al22 In2 O34'
_cell_volume   638.94558204
_cell_formula_units_Z   2
loop_
 _symmetry_equiv_pos_site_id
 _symmetry_equiv_pos_as_xyz
  1  'x, y, z'
loop_
 _atom_site_type_symbol
 _atom_site_label
 _atom_site_symmetry_multiplicity
 _atom_site_fract_x
 _atom_site_fract_y
 _atom_site_fract_z
 _atom_site_occupancy
  Al  Al0  1  0.16732800  0.83267200  0.89435100  1
  Al  Al1  1  0.16732800  0.83267200  0.60564900  1
  Al  Al2  1  0.33333300  0.66666700  0.17543600  1
  Al  Al3  1  0.33333300  0.66666700  0.02463600  1
  Al  Al4  1  0.00000000  0.00000000  0.00000000  1
  Al  Al5  1  0.00000000  0.00000000  0.50000000  1
  Al  Al6  1  0.33333300  0.66666700  0.32456400  1
  Al  Al7  1  0.33333300  0.66666700  0.47536400  1
  Al  Al8  1  0.16732800  0.33465600  0.60564900  1
  Al  Al9  1  0.16732800  0.33465600  0.89435100  1
  Al  Al10  1  0.66534400  0.83267200  0.89435100  1
  Al  Al11  1  0.66534400  0.83267200  0.60564900  1
  Al  Al12  1  0.33465600  0.16732800  0.39435100  1
  Al  Al13  1  0.33465600  0.16732800  0.10564900  1
  Al  Al14  1  0.83267200  0.66534400  0.39435100  1
  Al  Al15  1  0.66666700  0.33333300  0.67543600  1
  Al  Al16  1  0.66666700  0.33333300  0.82456400  1
  Al  Al17  1  0.66666700  0.33333300  0.97536400  1
  Al  Al18  1  0.66666700  0.33333300  0.52463600  1
  Al  Al19  1  0.83267200  0.66534400  0.10564900  1
  Al  Al20  1  0.83267200  0.16732800  0.10564900  1
  Al  Al21  1  0.83267200  0.16732800  0.39435100  1
  In  In22  1  0.33333300  0.66666700  0.75000000  1
  In  In23  1  0.66666700  0.33333300  0.25000000  1
  O  O24  1  0.15717300  0.84282700  0.04917400  1
  O  O25  1  0.15717300  0.84282700  0.45082600  1
  O  O26  1  0.00314200  0.50157100  0.85593500  1
  O  O27  1  0.00314200  0.50157100  0.64406500  1
  O  O28  1  0.15717300  0.31434500  0.45082600  1
  O  O29  1  0.33333300  0.66666700  0.25000000  1
  O  O30  1  0.00000000  0.00000000  0.13973100  1
  O  O31  1  0.33333300  0.66666700  0.94491600  1
  O  O32  1  0.00000000  0.00000000  0.36026900  1
  O  O33  1  0.00000000  0.00000000  0.63973100  1
  O  O34  1  0.00000000  0.00000000  0.86026900  1
  O  O35  1  0.33333300  0.66666700  0.55508400  1
  O  O36  1  0.15717300  0.31434500  0.04917400  1
  O  O37  1  0.49842900  0.99685800  0.64406500  1
  O  O38  1  0.49842900  0.99685800  0.85593500  1
  O  O39  1  0.31434500  0.15717300  0.54917400  1
  O  O40  1  0.31434500  0.15717300  0.95082600  1
  O  O41  1  0.49842900  0.50157100  0.85593500  1
  O  O42  1  0.49842900  0.50157100  0.64406500  1
  O  O43  1  0.50157100  0.49842900  0.14406500  1
  O  O44  1  0.50157100  0.49842900  0.35593500  1
  O  O45  1  0.68565500  0.84282700  0.45082600  1
  O  O46  1  0.68565500  0.84282700  0.04917400  1
  O  O47  1  0.50157100  0.00314200  0.35593500  1
  O  O48  1  0.66666700  0.33333300  0.44491600  1
  O  O49  1  0.66666700  0.33333300  0.75000000  1
  O  O50  1  0.66666700  0.33333300  0.05508400  1
  O  O51  1  0.84282700  0.68565500  0.95082600  1
  O  O52  1  0.84282700  0.68565500  0.54917400  1
  O  O53  1  0.50157100  0.00314200  0.14406500  1
  O  O54  1  0.99685800  0.49842900  0.14406500  1
  O  O55  1  0.99685800  0.49842900  0.35593500  1
  O  O56  1  0.84282700  0.15717300  0.54917400  1
  O  O57  1  0.84282700  0.15717300  0.95082600  1
