# generated using pymatgen
data_Dy2SiO5
_symmetry_space_group_name_H-M   'P 1'
_cell_length_a   3.67794900
_cell_length_b   10.19143600
_cell_length_c   10.81829900
_cell_angle_alpha   90.00000000
_cell_angle_beta   90.00000000
_cell_angle_gamma   90.00000000
_symmetry_Int_Tables_number   1
_chemical_formula_structural   Dy2SiO5
_chemical_formula_sum   'Dy8 Si4 O20'
_cell_volume   405.50859599
_cell_formula_units_Z   4
loop_
 _symmetry_equiv_pos_site_id
 _symmetry_equiv_pos_as_xyz
  1  'x, y, z'
loop_
 _atom_site_type_symbol
 _atom_site_label
 _atom_site_symmetry_multiplicity
 _atom_site_fract_x
 _atom_site_fract_y
 _atom_site_fract_z
 _atom_site_occupancy
  Dy  Dy0  1  0.25000000  0.10105800  0.28293400  1
  Dy  Dy1  1  0.25000000  0.13951600  0.94579700  1
  Dy  Dy2  1  0.75000000  0.36048400  0.44579700  1
  Dy  Dy3  1  0.75000000  0.39894200  0.78293400  1
  Dy  Dy4  1  0.25000000  0.60105800  0.21706600  1
  Dy  Dy5  1  0.25000000  0.63951600  0.55420300  1
  Dy  Dy6  1  0.75000000  0.86048400  0.05420300  1
  Dy  Dy7  1  0.75000000  0.89894200  0.71706600  1
  Si  Si8  1  0.25000000  0.18125100  0.62481800  1
  Si  Si9  1  0.75000000  0.31875000  0.12481800  1
  Si  Si10  1  0.25000000  0.68125000  0.87518200  1
  Si  Si11  1  0.75000000  0.81875000  0.37518200  1
  O  O12  1  0.75000000  0.00995500  0.89552300  1
  O  O13  1  0.25000000  0.02337000  0.65573700  1
  O  O14  1  0.25000000  0.22075800  0.47179000  1
  O  O15  1  0.75000000  0.22431400  0.62174900  1
  O  O16  1  0.75000000  0.23492900  0.26278100  1
  O  O17  1  0.25000000  0.26507100  0.76278100  1
  O  O18  1  0.25000000  0.27568600  0.12174900  1
  O  O19  1  0.75000000  0.27924200  0.97179000  1
  O  O20  1  0.75000000  0.47663000  0.15573700  1
  O  O21  1  0.25000000  0.49004500  0.39552300  1
  O  O22  1  0.75000000  0.50995500  0.60447700  1
  O  O23  1  0.25000000  0.52337000  0.84426300  1
  O  O24  1  0.25000000  0.72075800  0.02821000  1
  O  O25  1  0.75000000  0.72431400  0.87825100  1
  O  O26  1  0.75000000  0.73492900  0.23721900  1
  O  O27  1  0.25000000  0.76507100  0.73721900  1
  O  O28  1  0.25000000  0.77568600  0.37825100  1
  O  O29  1  0.75000000  0.77924200  0.52821000  1
  O  O30  1  0.75000000  0.97663000  0.34426300  1
  O  O31  1  0.25000000  0.99004500  0.10447700  1
