# generated using pymatgen
data_La2Ce2O7
_symmetry_space_group_name_H-M   'P 1'
_cell_length_a   6.00678100
_cell_length_b   8.43410800
_cell_length_c   14.67696197
_cell_angle_alpha   81.52822147
_cell_angle_beta   90.00000000
_cell_angle_gamma   90.00000000
_symmetry_Int_Tables_number   1
_chemical_formula_structural   La2Ce2O7
_chemical_formula_sum   'La8 Ce8 O28'
_cell_volume   735.44855429
_cell_formula_units_Z   4
loop_
 _symmetry_equiv_pos_site_id
 _symmetry_equiv_pos_as_xyz
  1  'x, y, z'
loop_
 _atom_site_type_symbol
 _atom_site_label
 _atom_site_symmetry_multiplicity
 _atom_site_fract_x
 _atom_site_fract_y
 _atom_site_fract_z
 _atom_site_occupancy
  La  La0  1  0.77175300  0.76573900  0.91732700  1
  La  La1  1  0.33221400  0.85927700  0.56087400  1
  La  La2  1  0.25125900  0.71622900  0.12391300  1
  La  La3  1  0.75105600  0.64230900  0.40537900  1
  La  La4  1  0.25105600  0.35769100  0.59462100  1
  La  La5  1  0.75125900  0.28377100  0.87608700  1
  La  La6  1  0.83221400  0.14072300  0.43912600  1
  La  La7  1  0.27175300  0.23426100  0.08267300  1
  Ce  Ce8  1  0.27070300  0.92508600  0.31547500  1
  Ce  Ce9  1  0.76587400  0.97064200  0.11531300  1
  Ce  Ce10  1  0.78049600  0.58434100  0.67827300  1
  Ce  Ce11  1  0.26813700  0.52867300  0.87928600  1
  Ce  Ce12  1  0.76813700  0.47132700  0.12071400  1
  Ce  Ce13  1  0.28049600  0.41565900  0.32172700  1
  Ce  Ce14  1  0.26587400  0.02935800  0.88468700  1
  Ce  Ce15  1  0.77070300  0.07491400  0.68452500  1
  O  O16  1  0.42507000  0.99786000  0.17002700  1
  O  O17  1  0.55291200  0.91213600  0.41879600  1
  O  O18  1  0.64679700  0.82544500  0.68848600  1
  O  O19  1  0.38179600  0.77577900  0.89237200  1
  O  O20  1  0.05523200  0.86891200  0.43467600  1
  O  O21  1  0.05570100  0.92751700  0.02097700  1
  O  O22  1  0.98441600  0.86110000  0.22374000  1
  O  O23  1  0.10191400  0.62449200  0.61302600  1
  O  O24  1  0.92432200  0.57821600  0.82957600  1
  O  O25  1  0.41524100  0.67624400  0.29854500  1
  O  O26  1  0.64533500  0.72907600  0.07861000  1
  O  O27  1  0.56951200  0.59420100  0.54859100  1
  O  O28  1  0.55386900  0.44272000  0.97777200  1
  O  O29  1  0.49473300  0.47270100  0.77368100  1
  O  O30  1  0.99473300  0.52729900  0.22631900  1
  O  O31  1  0.05386900  0.55728000  0.02222800  1
  O  O32  1  0.06951200  0.40579900  0.45140900  1
  O  O33  1  0.14533500  0.27092400  0.92139000  1
  O  O34  1  0.91524100  0.32375600  0.70145500  1
  O  O35  1  0.42432200  0.42178400  0.17042400  1
  O  O36  1  0.60191400  0.37550800  0.38697400  1
  O  O37  1  0.48441600  0.13890000  0.77626000  1
  O  O38  1  0.55570100  0.07248300  0.97902300  1
  O  O39  1  0.55523200  0.13108800  0.56532400  1
  O  O40  1  0.88179600  0.22422100  0.10762800  1
  O  O41  1  0.14679700  0.17455500  0.31151400  1
  O  O42  1  0.05291200  0.08786400  0.58120400  1
  O  O43  1  0.92507000  0.00214000  0.82997300  1
