# generated using pymatgen
data_Dy2Sb2O7
_symmetry_space_group_name_H-M   'P 1'
_cell_length_a   7.53421871
_cell_length_b   7.53421871
_cell_length_c   18.54538000
_cell_angle_alpha   90.00000000
_cell_angle_beta   90.00000000
_cell_angle_gamma   120.00000619
_symmetry_Int_Tables_number   1
_chemical_formula_structural   Dy2Sb2O7
_chemical_formula_sum   'Dy12 Sb12 O42'
_cell_volume   911.68075432
_cell_formula_units_Z   6
loop_
 _symmetry_equiv_pos_site_id
 _symmetry_equiv_pos_as_xyz
  1  'x, y, z'
loop_
 _atom_site_type_symbol
 _atom_site_label
 _atom_site_symmetry_multiplicity
 _atom_site_fract_x
 _atom_site_fract_y
 _atom_site_fract_z
 _atom_site_occupancy
  Dy  Dy0  1  0.00000000  0.82305500  0.66666700  1
  Dy  Dy1  1  0.00000000  0.83404500  0.16666700  1
  Dy  Dy2  1  0.18323800  0.68361100  0.01139400  1
  Dy  Dy3  1  0.17694500  0.17694500  0.00000000  1
  Dy  Dy4  1  0.50037200  0.81676200  0.67806100  1
  Dy  Dy5  1  0.16595500  0.16595500  0.50000000  1
  Dy  Dy6  1  0.31638900  0.49962800  0.34472700  1
  Dy  Dy7  1  0.49962800  0.31638900  0.65527300  1
  Dy  Dy8  1  0.68361100  0.18323800  0.98860600  1
  Dy  Dy9  1  0.81676200  0.50037200  0.32193900  1
  Dy  Dy10  1  0.83404500  0.00000000  0.83333300  1
  Dy  Dy11  1  0.82305500  0.00000000  0.33333300  1
  Sb  Sb12  1  0.00000000  0.32559200  0.16666700  1
  Sb  Sb13  1  0.00000000  0.29866900  0.66666700  1
  Sb  Sb14  1  0.16701500  0.66915100  0.50096800  1
  Sb  Sb15  1  0.50213600  0.83298500  0.16763500  1
  Sb  Sb16  1  0.33084900  0.49786400  0.83430200  1
  Sb  Sb17  1  0.29866900  0.00000000  0.33333300  1
  Sb  Sb18  1  0.67440800  0.67440800  0.50000000  1
  Sb  Sb19  1  0.32559200  0.00000000  0.83333300  1
  Sb  Sb20  1  0.70133100  0.70133100  0.00000000  1
  Sb  Sb21  1  0.49786400  0.33084900  0.16569800  1
  Sb  Sb22  1  0.66915100  0.16701500  0.49903200  1
  Sb  Sb23  1  0.83298500  0.50213600  0.83236500  1
  O  O24  1  0.01644700  0.85095200  0.28488900  1
  O  O25  1  0.99064300  0.80110000  0.80482100  1
  O  O26  1  0.10633600  0.65614200  0.39409200  1
  O  O27  1  0.05083700  0.43777700  0.80554800  1
  O  O28  1  0.32885200  0.99409500  0.95575300  1
  O  O29  1  0.23168800  0.69735300  0.60597800  1
  O  O30  1  0.00590500  0.33475700  0.28908600  1
  O  O31  1  0.20227200  0.68085200  0.14008900  1
  O  O32  1  0.38694000  0.94916300  0.47221400  1
  O  O33  1  0.46566500  0.76831200  0.27264400  1
  O  O34  1  0.47858000  0.79772800  0.80675600  1
  O  O35  1  0.34385800  0.45019400  0.72742600  1
  O  O36  1  0.14904800  0.16549500  0.61822200  1
  O  O37  1  0.31914800  0.52142000  0.47342300  1
  O  O38  1  0.19890000  0.18954300  0.13815400  1
  O  O39  1  0.16549500  0.14904800  0.38177800  1
  O  O40  1  0.30264700  0.53433500  0.93931100  1
  O  O41  1  0.18954300  0.19890000  0.86184600  1
  O  O42  1  0.54980600  0.89366400  0.06075900  1
  O  O43  1  0.56222300  0.61306000  0.13888100  1
  O  O44  1  0.81045700  0.00935700  0.47148800  1
  O  O45  1  0.66524300  0.67114800  0.62241900  1
  O  O46  1  0.45019400  0.34385800  0.27257400  1
  O  O47  1  0.61306000  0.56222300  0.86111900  1
  O  O48  1  0.33475700  0.00590500  0.71091400  1
  O  O49  1  0.83450500  0.98355300  0.95155600  1
  O  O50  1  0.53433500  0.30264700  0.06068900  1
  O  O51  1  0.67114800  0.66524300  0.37758100  1
  O  O52  1  0.52142000  0.31914800  0.52657700  1
  O  O53  1  0.43777700  0.05083700  0.19445200  1
  O  O54  1  0.69735300  0.23168800  0.39402200  1
  O  O55  1  0.68085200  0.20227200  0.85991100  1
  O  O56  1  0.89366400  0.54980600  0.93924100  1
  O  O57  1  0.98355300  0.83450500  0.04844400  1
  O  O58  1  0.79772800  0.47858000  0.19324400  1
  O  O59  1  0.00935700  0.81045700  0.52851200  1
  O  O60  1  0.76831200  0.46566500  0.72735600  1
  O  O61  1  0.65614200  0.10633600  0.60590800  1
  O  O62  1  0.94916300  0.38694000  0.52778600  1
  O  O63  1  0.80110000  0.99064300  0.19517900  1
  O  O64  1  0.99409500  0.32885200  0.04424700  1
  O  O65  1  0.85095200  0.01644700  0.71511100  1
