# generated using pymatgen
data_Zr2Bi2O7
_symmetry_space_group_name_H-M   'P 1'
_cell_length_a   5.71712100
_cell_length_b   8.09740200
_cell_length_c   13.97767824
_cell_angle_alpha   81.59839052
_cell_angle_beta   90.00000000
_cell_angle_gamma   90.00000000
_symmetry_Int_Tables_number   1
_chemical_formula_structural   Zr2Bi2O7
_chemical_formula_sum   'Zr8 Bi8 O28'
_cell_volume   640.13590195
_cell_formula_units_Z   4
loop_
 _symmetry_equiv_pos_site_id
 _symmetry_equiv_pos_as_xyz
  1  'x, y, z'
loop_
 _atom_site_type_symbol
 _atom_site_label
 _atom_site_symmetry_multiplicity
 _atom_site_fract_x
 _atom_site_fract_y
 _atom_site_fract_z
 _atom_site_occupancy
  Zr  Zr0  1  0.26180200  0.92624800  0.31691700  1
  Zr  Zr1  1  0.76441700  0.97190600  0.11427000  1
  Zr  Zr2  1  0.76565900  0.58857800  0.67684100  1
  Zr  Zr3  1  0.26311700  0.52912800  0.88240300  1
  Zr  Zr4  1  0.76311700  0.47087200  0.11759700  1
  Zr  Zr5  1  0.26565900  0.41142200  0.32315900  1
  Zr  Zr6  1  0.26441700  0.02809400  0.88573000  1
  Zr  Zr7  1  0.76180200  0.07375200  0.68308300  1
  Bi  Bi8  1  0.29692600  0.86368400  0.55947800  1
  Bi  Bi9  1  0.76869200  0.76915800  0.91391000  1
  Bi  Bi10  1  0.23815600  0.71335500  0.13024100  1
  Bi  Bi11  1  0.73165500  0.63260500  0.40171900  1
  Bi  Bi12  1  0.23165500  0.36739500  0.59828100  1
  Bi  Bi13  1  0.73815600  0.28664500  0.86975900  1
  Bi  Bi14  1  0.26869200  0.23084200  0.08609000  1
  Bi  Bi15  1  0.79692600  0.13631600  0.44052200  1
  O  O16  1  0.54552300  0.92271700  0.41369600  1
  O  O17  1  0.44173700  0.99391400  0.17867600  1
  O  O18  1  0.68104700  0.82606800  0.69172800  1
  O  O19  1  0.36471900  0.77741000  0.88556700  1
  O  O20  1  0.05599500  0.85947200  0.43707400  1
  O  O21  1  0.05580300  0.93756100  0.01959100  1
  O  O22  1  0.97906700  0.87283100  0.22434400  1
  O  O23  1  0.08985000  0.62562200  0.61622200  1
  O  O24  1  0.93301500  0.57740800  0.82332800  1
  O  O25  1  0.65931300  0.72846100  0.08407600  1
  O  O26  1  0.38583700  0.67337100  0.30565600  1
  O  O27  1  0.57593200  0.58605000  0.54860400  1
  O  O28  1  0.55353200  0.44851600  0.97980600  1
  O  O29  1  0.48069600  0.48446400  0.77307900  1
  O  O30  1  0.98069600  0.51553600  0.22692100  1
  O  O31  1  0.05353200  0.55148400  0.02019400  1
  O  O32  1  0.07593200  0.41395000  0.45139600  1
  O  O33  1  0.88583700  0.32662900  0.69434400  1
  O  O34  1  0.15931300  0.27153900  0.91592400  1
  O  O35  1  0.43301500  0.42259200  0.17667200  1
  O  O36  1  0.58985000  0.37437800  0.38377800  1
  O  O37  1  0.47906700  0.12716900  0.77565600  1
  O  O38  1  0.55580300  0.06243900  0.98040900  1
  O  O39  1  0.55599500  0.14052800  0.56292600  1
  O  O40  1  0.86471900  0.22259000  0.11443300  1
  O  O41  1  0.18104700  0.17393200  0.30827200  1
  O  O42  1  0.94173700  0.00608600  0.82132400  1
  O  O43  1  0.04552300  0.07728300  0.58630400  1
