# generated using pymatgen
data_Li4TiFe3O8
_symmetry_space_group_name_H-M   'P 1'
_cell_length_a   5.98554540
_cell_length_b   5.98554540
_cell_length_c   5.99717323
_cell_angle_alpha   59.88474243
_cell_angle_beta   59.88474243
_cell_angle_gamma   60.29579010
_symmetry_Int_Tables_number   1
_chemical_formula_structural   Li4TiFe3O8
_chemical_formula_sum   'Li4 Ti1 Fe3 O8'
_cell_volume   151.99814321
_cell_formula_units_Z   1
loop_
 _symmetry_equiv_pos_site_id
 _symmetry_equiv_pos_as_xyz
  1  'x, y, z'
loop_
 _atom_site_type_symbol
 _atom_site_label
 _atom_site_symmetry_multiplicity
 _atom_site_fract_x
 _atom_site_fract_y
 _atom_site_fract_z
 _atom_site_occupancy
  Li  Li0  1  0.50000000  0.50000000  0.50000000  1
  Li  Li1  1  0.00000000  0.00000000  0.50000000  1
  Li  Li2  1  0.00000000  0.50000000  0.50000000  1
  Li  Li3  1  0.50000000  0.00000000  0.50000000  1
  Ti  Ti4  1  0.00000000  0.00000000  0.00000000  1
  Fe  Fe5  1  0.50000000  0.50000000  0.00000000  1
  Fe  Fe6  1  0.50000000  0.00000000  0.00000000  1
  Fe  Fe7  1  0.00000000  0.50000000  0.00000000  1
  O  O8  1  0.25464000  0.25464000  0.22451500  1
  O  O9  1  0.76054600  0.76054600  0.23178600  1
  O  O10  1  0.77682600  0.23819700  0.23050800  1
  O  O11  1  0.74536000  0.74536000  0.77548500  1
  O  O12  1  0.23819700  0.77682600  0.23050800  1
  O  O13  1  0.23945400  0.23945400  0.76821400  1
  O  O14  1  0.22317400  0.76180300  0.76949200  1
  O  O15  1  0.76180300  0.22317400  0.76949200  1
