# generated using pymatgen
data_Na6Mn2B4SO16
_symmetry_space_group_name_H-M   'P 1'
_cell_length_a   9.83437606
_cell_length_b   9.83437606
_cell_length_c   9.83437606
_cell_angle_alpha   60.00000000
_cell_angle_beta   60.00000000
_cell_angle_gamma   60.00000000
_symmetry_Int_Tables_number   1
_chemical_formula_structural   Na6Mn2B4SO16
_chemical_formula_sum   'Na12 Mn4 B8 S2 O32'
_cell_volume   672.55133058
_cell_formula_units_Z   2
loop_
 _symmetry_equiv_pos_site_id
 _symmetry_equiv_pos_as_xyz
  1  'x, y, z'
loop_
 _atom_site_type_symbol
 _atom_site_label
 _atom_site_symmetry_multiplicity
 _atom_site_fract_x
 _atom_site_fract_y
 _atom_site_fract_z
 _atom_site_occupancy
  Na  Na0  1  0.96764600  0.96764600  0.53235400  1
  Na  Na1  1  0.71764600  0.28235400  0.28235400  1
  Na  Na2  1  0.96764600  0.53235400  0.96764600  1
  Na  Na3  1  0.53235400  0.96764600  0.53235400  1
  Na  Na4  1  0.71764600  0.71764600  0.28235400  1
  Na  Na5  1  0.28235400  0.71764600  0.71764600  1
  Na  Na6  1  0.53235400  0.53235400  0.96764600  1
  Na  Na7  1  0.96764600  0.53235400  0.53235400  1
  Na  Na8  1  0.71764600  0.28235400  0.71764600  1
  Na  Na9  1  0.28235400  0.71764600  0.28235400  1
  Na  Na10  1  0.53235400  0.96764600  0.96764600  1
  Na  Na11  1  0.28235400  0.28235400  0.71764600  1
  Mn  Mn12  1  0.12500000  0.62500000  0.12500000  1
  Mn  Mn13  1  0.12500000  0.12500000  0.62500000  1
  Mn  Mn14  1  0.12500000  0.12500000  0.12500000  1
  Mn  Mn15  1  0.62500000  0.12500000  0.12500000  1
  B  B16  1  0.33605400  0.99183700  0.33605400  1
  B  B17  1  0.99183700  0.33605400  0.33605400  1
  B  B18  1  0.33605400  0.33605400  0.99183700  1
  B  B19  1  0.33605400  0.33605400  0.33605400  1
  B  B20  1  0.91394600  0.91394600  0.91394600  1
  B  B21  1  0.25816300  0.91394600  0.91394600  1
  B  B22  1  0.91394600  0.91394600  0.25816300  1
  B  B23  1  0.91394600  0.25816300  0.91394600  1
  S  S24  1  0.75000000  0.75000000  0.75000000  1
  S  S25  1  0.50000000  0.50000000  0.50000000  1
  O  O26  1  0.94251300  0.03397100  0.26527200  1
  O  O27  1  0.75824300  0.26527200  0.03397100  1
  O  O28  1  0.21602900  0.98472800  0.30748700  1
  O  O29  1  0.30748700  0.98472800  0.49175700  1
  O  O30  1  0.68786600  0.68786600  0.68786600  1
  O  O31  1  0.98472800  0.30748700  0.21602900  1
  O  O32  1  0.98472800  0.21602900  0.49175700  1
  O  O33  1  0.68786600  0.68786600  0.93640100  1
  O  O34  1  0.93640100  0.68786600  0.68786600  1
  O  O35  1  0.49175700  0.30748700  0.98472800  1
  O  O36  1  0.21602900  0.49175700  0.98472800  1
  O  O37  1  0.68786600  0.93640100  0.68786600  1
  O  O38  1  0.49175700  0.21602900  0.30748700  1
  O  O39  1  0.98472800  0.49175700  0.30748700  1
  O  O40  1  0.21602900  0.30748700  0.49175700  1
  O  O41  1  0.94251300  0.75824300  0.03397100  1
  O  O42  1  0.30748700  0.49175700  0.21602900  1
  O  O43  1  0.03397100  0.94251300  0.75824300  1
  O  O44  1  0.26527200  0.75824300  0.94251300  1
  O  O45  1  0.75824300  0.03397100  0.94251300  1
  O  O46  1  0.56213400  0.31359900  0.56213400  1
  O  O47  1  0.03397100  0.75824300  0.26527200  1
  O  O48  1  0.75824300  0.94251300  0.26527200  1
  O  O49  1  0.56213400  0.56213400  0.31359900  1
  O  O50  1  0.31359900  0.56213400  0.56213400  1
  O  O51  1  0.26527200  0.03397100  0.75824300  1
  O  O52  1  0.26527200  0.94251300  0.03397100  1
  O  O53  1  0.56213400  0.56213400  0.56213400  1
  O  O54  1  0.94251300  0.26527200  0.75824300  1
  O  O55  1  0.03397100  0.26527200  0.94251300  1
  O  O56  1  0.49175700  0.98472800  0.21602900  1
  O  O57  1  0.30748700  0.21602900  0.98472800  1
