# generated using pymatgen
data_Na6Mn2B4AsO16
_symmetry_space_group_name_H-M   'P 1'
_cell_length_a   9.91663803
_cell_length_b   9.91663803
_cell_length_c   9.91663803
_cell_angle_alpha   60.00000000
_cell_angle_beta   60.00000000
_cell_angle_gamma   60.00000000
_symmetry_Int_Tables_number   1
_chemical_formula_structural   Na6Mn2B4AsO16
_chemical_formula_sum   'Na12 Mn4 B8 As2 O32'
_cell_volume   689.57004316
_cell_formula_units_Z   2
loop_
 _symmetry_equiv_pos_site_id
 _symmetry_equiv_pos_as_xyz
  1  'x, y, z'
loop_
 _atom_site_type_symbol
 _atom_site_label
 _atom_site_symmetry_multiplicity
 _atom_site_fract_x
 _atom_site_fract_y
 _atom_site_fract_z
 _atom_site_occupancy
  Na  Na0  1  0.28298300  0.71701700  0.28298300  1
  Na  Na1  1  0.53298300  0.96701700  0.53298300  1
  Na  Na2  1  0.28298300  0.71701700  0.71701700  1
  Na  Na3  1  0.28298300  0.28298300  0.71701700  1
  Na  Na4  1  0.53298300  0.96701700  0.96701700  1
  Na  Na5  1  0.53298300  0.53298300  0.96701700  1
  Na  Na6  1  0.71701700  0.28298300  0.28298300  1
  Na  Na7  1  0.71701700  0.71701700  0.28298300  1
  Na  Na8  1  0.96701700  0.96701700  0.53298300  1
  Na  Na9  1  0.96701700  0.53298300  0.53298300  1
  Na  Na10  1  0.71701700  0.28298300  0.71701700  1
  Na  Na11  1  0.96701700  0.53298300  0.96701700  1
  Mn  Mn12  1  0.62500000  0.12500000  0.12500000  1
  Mn  Mn13  1  0.12500000  0.62500000  0.12500000  1
  Mn  Mn14  1  0.12500000  0.12500000  0.12500000  1
  Mn  Mn15  1  0.12500000  0.12500000  0.62500000  1
  B  B16  1  0.33484600  0.33484600  0.33484600  1
  B  B17  1  0.33484600  0.99546200  0.33484600  1
  B  B18  1  0.99546200  0.33484600  0.33484600  1
  B  B19  1  0.91515400  0.91515400  0.25453800  1
  B  B20  1  0.25453800  0.91515400  0.91515400  1
  B  B21  1  0.33484600  0.33484600  0.99546200  1
  B  B22  1  0.91515400  0.25453800  0.91515400  1
  B  B23  1  0.91515400  0.91515400  0.91515400  1
  As  As24  1  0.50000000  0.50000000  0.50000000  1
  As  As25  1  0.75000000  0.75000000  0.75000000  1
  O  O26  1  0.48998700  0.30441800  0.21724800  1
  O  O27  1  0.57077300  0.57077300  0.28768000  1
  O  O28  1  0.48998700  0.98834700  0.30441800  1
  O  O29  1  0.30441800  0.98834700  0.21724800  1
  O  O30  1  0.57077300  0.57077300  0.57077300  1
  O  O31  1  0.57077300  0.28768000  0.57077300  1
  O  O32  1  0.21724800  0.48998700  0.30441800  1
  O  O33  1  0.30441800  0.21724800  0.48998700  1
  O  O34  1  0.28768000  0.57077300  0.57077300  1
  O  O35  1  0.98834700  0.48998700  0.21724800  1
  O  O36  1  0.03275200  0.94558200  0.26165300  1
  O  O37  1  0.21724800  0.98834700  0.48998700  1
  O  O38  1  0.98834700  0.21724800  0.30441800  1
  O  O39  1  0.94558200  0.76001300  0.26165300  1
  O  O40  1  0.48998700  0.21724800  0.98834700  1
  O  O41  1  0.26165300  0.94558200  0.76001300  1
  O  O42  1  0.76001300  0.03275200  0.26165300  1
  O  O43  1  0.98834700  0.30441800  0.48998700  1
  O  O44  1  0.30441800  0.48998700  0.98834700  1
  O  O45  1  0.26165300  0.03275200  0.94558200  1
  O  O46  1  0.03275200  0.26165300  0.76001300  1
  O  O47  1  0.21724800  0.30441800  0.98834700  1
  O  O48  1  0.26165300  0.76001300  0.03275200  1
  O  O49  1  0.96232000  0.67922700  0.67922700  1
  O  O50  1  0.94558200  0.03275200  0.76001300  1
  O  O51  1  0.03275200  0.76001300  0.94558200  1
  O  O52  1  0.67922700  0.96232000  0.67922700  1
  O  O53  1  0.67922700  0.67922700  0.67922700  1
  O  O54  1  0.94558200  0.26165300  0.03275200  1
  O  O55  1  0.76001300  0.26165300  0.94558200  1
  O  O56  1  0.67922700  0.67922700  0.96232000  1
  O  O57  1  0.76001300  0.94558200  0.03275200  1
