# generated using pymatgen
data_Na6Fe2B4PO16
_symmetry_space_group_name_H-M   'P 1'
_cell_length_a   9.99043594
_cell_length_b   9.99043594
_cell_length_c   9.99043594
_cell_angle_alpha   60.00000000
_cell_angle_beta   60.00000000
_cell_angle_gamma   60.00000000
_symmetry_Int_Tables_number   1
_chemical_formula_structural   Na6Fe2B4PO16
_chemical_formula_sum   'Na12 Fe4 B8 P2 O32'
_cell_volume   705.07987741
_cell_formula_units_Z   2
loop_
 _symmetry_equiv_pos_site_id
 _symmetry_equiv_pos_as_xyz
  1  'x, y, z'
loop_
 _atom_site_type_symbol
 _atom_site_label
 _atom_site_symmetry_multiplicity
 _atom_site_fract_x
 _atom_site_fract_y
 _atom_site_fract_z
 _atom_site_occupancy
  Na  Na0  1  0.53742100  0.96257900  0.96257900  1
  Na  Na1  1  0.53742100  0.53742100  0.96257900  1
  Na  Na2  1  0.96257900  0.53742100  0.96257900  1
  Na  Na3  1  0.53742100  0.96257900  0.53742100  1
  Na  Na4  1  0.28742100  0.71257900  0.71257900  1
  Na  Na5  1  0.28742100  0.28742100  0.71257900  1
  Na  Na6  1  0.96257900  0.96257900  0.53742100  1
  Na  Na7  1  0.96257900  0.53742100  0.53742100  1
  Na  Na8  1  0.71257900  0.28742100  0.71257900  1
  Na  Na9  1  0.28742100  0.71257900  0.28742100  1
  Na  Na10  1  0.71257900  0.28742100  0.28742100  1
  Na  Na11  1  0.71257900  0.71257900  0.28742100  1
  Fe  Fe12  1  0.62500000  0.12500000  0.12500000  1
  Fe  Fe13  1  0.12500000  0.62500000  0.12500000  1
  Fe  Fe14  1  0.12500000  0.12500000  0.12500000  1
  Fe  Fe15  1  0.12500000  0.12500000  0.62500000  1
  B  B16  1  0.33765200  0.33765200  0.98704300  1
  B  B17  1  0.33765200  0.33765200  0.33765200  1
  B  B18  1  0.33765200  0.98704300  0.33765200  1
  B  B19  1  0.98704300  0.33765200  0.33765200  1
  B  B20  1  0.26295700  0.91234800  0.91234800  1
  B  B21  1  0.91234800  0.26295700  0.91234800  1
  B  B22  1  0.91234800  0.91234800  0.91234800  1
  B  B23  1  0.91234800  0.91234800  0.26295700  1
  P  P24  1  0.50000000  0.50000000  0.50000000  1
  P  P25  1  0.75000000  0.75000000  0.75000000  1
  O  O26  1  0.56348300  0.56348300  0.30955100  1
  O  O27  1  0.56348300  0.56348300  0.56348300  1
  O  O28  1  0.56348300  0.30955100  0.56348300  1
  O  O29  1  0.30955100  0.56348300  0.56348300  1
  O  O30  1  0.48881800  0.21677600  0.98313300  1
  O  O31  1  0.31127300  0.48881800  0.98313300  1
  O  O32  1  0.48881800  0.31127300  0.21677600  1
  O  O33  1  0.21677600  0.31127300  0.98313300  1
  O  O34  1  0.48881800  0.98313300  0.31127300  1
  O  O35  1  0.31127300  0.98313300  0.21677600  1
  O  O36  1  0.21677600  0.48881800  0.31127300  1
  O  O37  1  0.31127300  0.21677600  0.48881800  1
  O  O38  1  0.98313300  0.48881800  0.21677600  1
  O  O39  1  0.21677600  0.98313300  0.48881800  1
  O  O40  1  0.98313300  0.21677600  0.31127300  1
  O  O41  1  0.26686700  0.93872700  0.76118200  1
  O  O42  1  0.98313300  0.31127300  0.48881800  1
  O  O43  1  0.26686700  0.03322400  0.93872700  1
  O  O44  1  0.03322400  0.26686700  0.76118200  1
  O  O45  1  0.26686700  0.76118200  0.03322400  1
  O  O46  1  0.93872700  0.03322400  0.76118200  1
  O  O47  1  0.03322400  0.76118200  0.93872700  1
  O  O48  1  0.93872700  0.26686700  0.03322400  1
  O  O49  1  0.76118200  0.26686700  0.93872700  1
  O  O50  1  0.03322400  0.93872700  0.26686700  1
  O  O51  1  0.76118200  0.93872700  0.03322400  1
  O  O52  1  0.93872700  0.76118200  0.26686700  1
  O  O53  1  0.76118200  0.03322400  0.26686700  1
  O  O54  1  0.94044900  0.68651700  0.68651700  1
  O  O55  1  0.68651700  0.94044900  0.68651700  1
  O  O56  1  0.68651700  0.68651700  0.68651700  1
  O  O57  1  0.68651700  0.68651700  0.94044900  1
