# generated using pymatgen
data_Li4Mn2Fe3Sb(PO4)6
_symmetry_space_group_name_H-M   'P 1'
_cell_length_a   8.45709300
_cell_length_b   8.54876565
_cell_length_c   8.56208945
_cell_angle_alpha   64.50339866
_cell_angle_beta   64.98786343
_cell_angle_gamma   64.72672363
_symmetry_Int_Tables_number   1
_chemical_formula_structural   Li4Mn2Fe3Sb(PO4)6
_chemical_formula_sum   'Li4 Mn2 Fe3 Sb1 P6 O24'
_cell_volume   483.10081236
_cell_formula_units_Z   1
loop_
 _symmetry_equiv_pos_site_id
 _symmetry_equiv_pos_as_xyz
  1  'x, y, z'
loop_
 _atom_site_type_symbol
 _atom_site_label
 _atom_site_symmetry_multiplicity
 _atom_site_fract_x
 _atom_site_fract_y
 _atom_site_fract_z
 _atom_site_occupancy
  Li  Li0  1  0.74917300  0.14265500  0.35594400  1
  Li  Li1  1  0.28373400  0.84074800  0.64737600  1
  Li  Li2  1  0.64316700  0.28009200  0.84032100  1
  Li  Li3  1  0.84188600  0.64438000  0.28759100  1
  Mn  Mn4  1  0.01385700  0.00124300  0.99663400  1
  Mn  Mn5  1  0.48521000  0.50684100  0.50018700  1
  Fe  Fe6  1  0.14838100  0.15069800  0.14633700  1
  Fe  Fe7  1  0.34778100  0.34843900  0.34653800  1
  Fe  Fe8  1  0.66026800  0.65952400  0.66263800  1
  Sb  Sb9  1  0.84131000  0.83496300  0.84251000  1
  P  P10  1  0.07178100  0.74710800  0.43071500  1
  P  P11  1  0.43068100  0.07298000  0.74794000  1
  P  P12  1  0.74620200  0.43170500  0.07008600  1
  P  P13  1  0.25045400  0.54255700  0.94985300  1
  P  P14  1  0.55109800  0.94987600  0.25170800  1
  P  P15  1  0.94122300  0.24766000  0.54405500  1
  O  O16  1  0.10883700  0.30860300  0.48775200  1
  O  O17  1  0.32367300  0.49913100  0.10437400  1
  O  O18  1  0.06800300  0.90484800  0.25189200  1
  O  O19  1  0.53425900  0.10226400  0.31497300  1
  O  O20  1  0.06781700  0.80563700  0.58156400  1
  O  O21  1  0.25403600  0.59013100  0.40781900  1
  O  O22  1  0.24459300  0.08798600  0.89339400  1
  O  O23  1  0.42617300  0.24950600  0.58173500  1
  O  O24  1  0.17128800  0.39856800  0.98521300  1
  O  O25  1  0.59391000  0.40908500  0.25710000  1
  O  O26  1  0.10381000  0.74212600  0.92764300  1
  O  O27  1  0.39376600  0.99796100  0.18348400  1
  O  O28  1  0.58113800  0.06298000  0.81441900  1
  O  O29  1  0.89067300  0.24125600  0.08791400  1
  O  O30  1  0.40402000  0.56302600  0.76177100  1
  O  O31  1  0.81074600  0.58028000  0.06221400  1
  O  O32  1  0.56261900  0.76306500  0.40832600  1
  O  O33  1  0.74790500  0.91775500  0.10329100  1
  O  O34  1  0.75662800  0.40628200  0.56808100  1
  O  O35  1  0.95384500  0.17592900  0.40250100  1
  O  O36  1  0.47777100  0.90419100  0.69169800  1
  O  O37  1  0.92791600  0.10080500  0.74090900  1
  O  O38  1  0.68753700  0.47717100  0.90438900  1
  O  O39  1  0.90282900  0.68694400  0.48011000  1
