# generated using pymatgen
data_Ca3In2(SiO4)3
_symmetry_space_group_name_H-M   'P 1'
_cell_length_a   10.80102380
_cell_length_b   10.80102380
_cell_length_c   10.80102380
_cell_angle_alpha   109.47122063
_cell_angle_beta   109.47122063
_cell_angle_gamma   109.47122063
_symmetry_Int_Tables_number   1
_chemical_formula_structural   Ca3In2(SiO4)3
_chemical_formula_sum   'Ca12 In8 Si12 O48'
_cell_volume   970.00255611
_cell_formula_units_Z   4
loop_
 _symmetry_equiv_pos_site_id
 _symmetry_equiv_pos_as_xyz
  1  'x, y, z'
loop_
 _atom_site_type_symbol
 _atom_site_label
 _atom_site_symmetry_multiplicity
 _atom_site_fract_x
 _atom_site_fract_y
 _atom_site_fract_z
 _atom_site_occupancy
  Ca  Ca0  1  0.62500000  0.25000000  0.87500000  1
  Ca  Ca1  1  0.87500000  0.75000000  0.62500000  1
  Ca  Ca2  1  0.75000000  0.62500000  0.87500000  1
  Ca  Ca3  1  0.25000000  0.87500000  0.62500000  1
  Ca  Ca4  1  0.62500000  0.87500000  0.75000000  1
  Ca  Ca5  1  0.12500000  0.37500000  0.75000000  1
  Ca  Ca6  1  0.37500000  0.75000000  0.12500000  1
  Ca  Ca7  1  0.12500000  0.25000000  0.37500000  1
  Ca  Ca8  1  0.25000000  0.37500000  0.12500000  1
  Ca  Ca9  1  0.75000000  0.12500000  0.37500000  1
  Ca  Ca10  1  0.87500000  0.62500000  0.25000000  1
  Ca  Ca11  1  0.37500000  0.12500000  0.25000000  1
  In  In12  1  0.50000000  0.50000000  0.50000000  1
  In  In13  1  0.50000000  0.00000000  0.50000000  1
  In  In14  1  0.00000000  0.50000000  0.50000000  1
  In  In15  1  0.00000000  0.00000000  0.50000000  1
  In  In16  1  0.00000000  0.50000000  0.00000000  1
  In  In17  1  0.50000000  0.00000000  0.00000000  1
  In  In18  1  0.00000000  0.00000000  0.00000000  1
  In  In19  1  0.50000000  0.50000000  0.00000000  1
  Si  Si20  1  0.12500000  0.87500000  0.25000000  1
  Si  Si21  1  0.75000000  0.37500000  0.62500000  1
  Si  Si22  1  0.62500000  0.37500000  0.25000000  1
  Si  Si23  1  0.62500000  0.75000000  0.37500000  1
  Si  Si24  1  0.37500000  0.62500000  0.75000000  1
  Si  Si25  1  0.12500000  0.75000000  0.87500000  1
  Si  Si26  1  0.87500000  0.25000000  0.12500000  1
  Si  Si27  1  0.75000000  0.87500000  0.12500000  1
  Si  Si28  1  0.37500000  0.25000000  0.62500000  1
  Si  Si29  1  0.25000000  0.62500000  0.37500000  1
  Si  Si30  1  0.87500000  0.12500000  0.75000000  1
  Si  Si31  1  0.25000000  0.12500000  0.87500000  1
  O  O32  1  0.70159500  0.09285600  0.71413800  1
  O  O33  1  0.10873900  0.98745700  0.70159500  1
  O  O34  1  0.71413800  0.51254300  0.62128200  1
  O  O35  1  0.62128200  0.71413800  0.51254300  1
  O  O36  1  0.87871800  0.39126100  0.09285600  1
  O  O37  1  0.09285600  0.87871800  0.39126100  1
  O  O38  1  0.98745700  0.70159500  0.10873900  1
  O  O39  1  0.40714400  0.10873900  0.62128200  1
  O  O40  1  0.39126100  0.79840500  0.51254300  1
  O  O41  1  0.98745700  0.78586200  0.87871800  1
  O  O42  1  0.10873900  0.62128200  0.40714400  1
  O  O43  1  0.51254300  0.39126100  0.79840500  1
  O  O44  1  0.78586200  0.87871800  0.98745700  1
  O  O45  1  0.71413800  0.70159500  0.09285600  1
  O  O46  1  0.09285600  0.71413800  0.70159500  1
  O  O47  1  0.62128200  0.40714400  0.10873900  1
  O  O48  1  0.78586200  0.40714400  0.79840500  1
  O  O49  1  0.79840500  0.51254300  0.39126100  1
  O  O50  1  0.79840500  0.78586200  0.40714400  1
  O  O51  1  0.87871800  0.98745700  0.78586200  1
  O  O52  1  0.40714400  0.79840500  0.78586200  1
  O  O53  1  0.39126100  0.09285600  0.87871800  1
  O  O54  1  0.70159500  0.10873900  0.98745700  1
  O  O55  1  0.51254300  0.62128200  0.71413800  1
  O  O56  1  0.29840500  0.90714400  0.28586200  1
  O  O57  1  0.89126100  0.01254300  0.29840500  1
  O  O58  1  0.28586200  0.48745700  0.37871800  1
  O  O59  1  0.37871800  0.28586200  0.48745700  1
  O  O60  1  0.12128200  0.60873900  0.90714400  1
  O  O61  1  0.90714400  0.12128200  0.60873900  1
  O  O62  1  0.01254300  0.29840500  0.89126100  1
  O  O63  1  0.59285600  0.89126100  0.37871800  1
  O  O64  1  0.60873900  0.20159500  0.48745700  1
  O  O65  1  0.01254300  0.21413800  0.12128200  1
  O  O66  1  0.89126100  0.37871800  0.59285600  1
  O  O67  1  0.48745700  0.60873900  0.20159500  1
  O  O68  1  0.21413800  0.12128200  0.01254300  1
  O  O69  1  0.28586200  0.29840500  0.90714400  1
  O  O70  1  0.90714400  0.28586200  0.29840500  1
  O  O71  1  0.37871800  0.59285600  0.89126100  1
  O  O72  1  0.21413800  0.59285600  0.20159500  1
  O  O73  1  0.20159500  0.48745700  0.60873900  1
  O  O74  1  0.20159500  0.21413800  0.59285600  1
  O  O75  1  0.12128200  0.01254300  0.21413800  1
  O  O76  1  0.59285600  0.20159500  0.21413800  1
  O  O77  1  0.60873900  0.90714400  0.12128200  1
  O  O78  1  0.29840500  0.89126100  0.01254300  1
  O  O79  1  0.48745700  0.37871800  0.28586200  1
