# generated using pymatgen
data_Li3FeF6
_symmetry_space_group_name_H-M   'P 1'
_cell_length_a   5.12702980
_cell_length_b   5.12702980
_cell_length_c   9.64977100
_cell_angle_alpha   90.00000000
_cell_angle_beta   90.00000000
_cell_angle_gamma   119.99999747
_symmetry_Int_Tables_number   1
_chemical_formula_structural   Li3FeF6
_chemical_formula_sum   'Li6 Fe2 F12'
_cell_volume   219.67434192
_cell_formula_units_Z   2
loop_
 _symmetry_equiv_pos_site_id
 _symmetry_equiv_pos_as_xyz
  1  'x, y, z'
loop_
 _atom_site_type_symbol
 _atom_site_label
 _atom_site_symmetry_multiplicity
 _atom_site_fract_x
 _atom_site_fract_y
 _atom_site_fract_z
 _atom_site_occupancy
  Li  Li0  1  0.33333300  0.66666700  0.94552500  1
  Li  Li1  1  0.00000000  0.00000000  0.25000000  1
  Li  Li2  1  0.00000000  0.00000000  0.75000000  1
  Li  Li3  1  0.33333300  0.66666700  0.55447500  1
  Li  Li4  1  0.66666700  0.33333300  0.05447500  1
  Li  Li5  1  0.66666700  0.33333300  0.44552500  1
  Fe  Fe6  1  0.33333300  0.66666700  0.25000000  1
  Fe  Fe7  1  0.66666700  0.33333300  0.75000000  1
  F  F8  1  0.02762800  0.67253400  0.36839300  1
  F  F9  1  0.32746600  0.97237200  0.13160700  1
  F  F10  1  0.02762800  0.35509400  0.13160700  1
  F  F11  1  0.32746600  0.35509400  0.36839300  1
  F  F12  1  0.64490600  0.97237200  0.36839300  1
  F  F13  1  0.35509400  0.32746600  0.86839300  1
  F  F14  1  0.64490600  0.67253400  0.13160700  1
  F  F15  1  0.35509400  0.02762800  0.63160700  1
  F  F16  1  0.67253400  0.64490600  0.63160700  1
  F  F17  1  0.97237200  0.64490600  0.86839300  1
  F  F18  1  0.67253400  0.02762800  0.86839300  1
  F  F19  1  0.97237200  0.32746600  0.63160700  1
