# generated using pymatgen
data_Ta2Zn4O9
_symmetry_space_group_name_H-M   'P 1'
_cell_length_a   5.26078800
_cell_length_b   9.46592900
_cell_length_c   16.01050151
_cell_angle_alpha   56.24671192
_cell_angle_beta   90.00000000
_cell_angle_gamma   90.00000000
_symmetry_Int_Tables_number   1
_chemical_formula_structural   Ta2Zn4O9
_chemical_formula_sum   'Ta8 Zn16 O36'
_cell_volume   662.90105012
_cell_formula_units_Z   4
loop_
 _symmetry_equiv_pos_site_id
 _symmetry_equiv_pos_as_xyz
  1  'x, y, z'
loop_
 _atom_site_type_symbol
 _atom_site_label
 _atom_site_symmetry_multiplicity
 _atom_site_fract_x
 _atom_site_fract_y
 _atom_site_fract_z
 _atom_site_occupancy
  Ta  Ta0  1  0.00634200  0.99934100  0.33990200  1
  Ta  Ta1  1  0.98956400  0.49485600  0.83891300  1
  Ta  Ta2  1  0.50634200  0.00065900  0.16009800  1
  Ta  Ta3  1  0.48956400  0.50514400  0.66108700  1
  Ta  Ta4  1  0.51043600  0.49485600  0.33891300  1
  Ta  Ta5  1  0.49365800  0.99934100  0.83990200  1
  Ta  Ta6  1  0.01043600  0.50514400  0.16108700  1
  Ta  Ta7  1  0.99365800  0.00065900  0.66009800  1
  Zn  Zn8  1  0.50000000  0.50000000  0.00000000  1
  Zn  Zn9  1  0.50000000  0.00000000  0.50000000  1
  Zn  Zn10  1  0.48928700  0.75487600  0.73730000  1
  Zn  Zn11  1  0.00013400  0.24502100  0.09373900  1
  Zn  Zn12  1  0.00116000  0.73810000  0.57381900  1
  Zn  Zn13  1  0.50116000  0.26190000  0.92618100  1
  Zn  Zn14  1  0.50013400  0.75497900  0.40626100  1
  Zn  Zn15  1  0.98928700  0.24512400  0.76270000  1
  Zn  Zn16  1  0.00000000  0.00000000  0.00000000  1
  Zn  Zn17  1  0.01071300  0.75487600  0.23730000  1
  Zn  Zn18  1  0.00000000  0.50000000  0.50000000  1
  Zn  Zn19  1  0.49986600  0.24502100  0.59373900  1
  Zn  Zn20  1  0.49884000  0.73810000  0.07381900  1
  Zn  Zn21  1  0.99884000  0.26190000  0.42618100  1
  Zn  Zn22  1  0.99986600  0.75497900  0.90626100  1
  Zn  Zn23  1  0.51071300  0.24512400  0.26270000  1
  O  O24  1  0.88651300  0.25238100  0.22343400  1
  O  O25  1  0.16218700  0.08816100  0.40988000  1
  O  O26  1  0.67974800  0.57190100  0.86659000  1
  O  O27  1  0.16542000  0.42251700  0.96308300  1
  O  O28  1  0.68092700  0.94576100  0.40722500  1
  O  O29  1  0.37514900  0.73695400  0.61431200  1
  O  O30  1  0.62871500  0.23268600  0.06156900  1
  O  O31  1  0.32987200  0.06000100  0.25315900  1
  O  O32  1  0.82815700  0.55449500  0.70654300  1
  O  O33  1  0.32815700  0.44550500  0.79345700  1
  O  O34  1  0.82987200  0.93999900  0.24684100  1
  O  O35  1  0.12871500  0.76731400  0.43843100  1
  O  O36  1  0.87514900  0.26304600  0.88568800  1
  O  O37  1  0.18092700  0.05423900  0.09277500  1
  O  O38  1  0.66542000  0.57748300  0.53691700  1
  O  O39  1  0.17974800  0.42809900  0.63341000  1
  O  O40  1  0.66218700  0.91183900  0.09012000  1
  O  O41  1  0.38651300  0.74761900  0.27656600  1
  O  O42  1  0.61348700  0.25238100  0.72343400  1
  O  O43  1  0.33781300  0.08816100  0.90988000  1
  O  O44  1  0.82025200  0.57190100  0.36659000  1
  O  O45  1  0.33458000  0.42251700  0.46308300  1
  O  O46  1  0.81907300  0.94576100  0.90722500  1
  O  O47  1  0.12485100  0.73695400  0.11431200  1
  O  O48  1  0.87128500  0.23268600  0.56156900  1
  O  O49  1  0.17012800  0.06000100  0.75315900  1
  O  O50  1  0.67184300  0.55449500  0.20654300  1
  O  O51  1  0.17184300  0.44550500  0.29345700  1
  O  O52  1  0.67012800  0.93999900  0.74684100  1
  O  O53  1  0.37128500  0.76731400  0.93843100  1
  O  O54  1  0.62485100  0.26304600  0.38568800  1
  O  O55  1  0.31907300  0.05423900  0.59277500  1
  O  O56  1  0.83458000  0.57748300  0.03691700  1
  O  O57  1  0.32025200  0.42809900  0.13341000  1
  O  O58  1  0.83781300  0.91183900  0.59012000  1
  O  O59  1  0.11348700  0.74761900  0.77656600  1
