# generated using pymatgen
data_Na2Cr4O13
_symmetry_space_group_name_H-M   'P 1'
_cell_length_a   7.28333700
_cell_length_b   8.82557400
_cell_length_c   9.00239866
_cell_angle_alpha   88.17095169
_cell_angle_beta   90.00000000
_cell_angle_gamma   90.00000000
_symmetry_Int_Tables_number   1
_chemical_formula_structural   Na2Cr4O13
_chemical_formula_sum   'Na4 Cr8 O26'
_cell_volume   578.37602311
_cell_formula_units_Z   2
loop_
 _symmetry_equiv_pos_site_id
 _symmetry_equiv_pos_as_xyz
  1  'x, y, z'
loop_
 _atom_site_type_symbol
 _atom_site_label
 _atom_site_symmetry_multiplicity
 _atom_site_fract_x
 _atom_site_fract_y
 _atom_site_fract_z
 _atom_site_occupancy
  Na  Na0  1  0.89170300  0.93434800  0.75410100  1
  Na  Na1  1  0.10829700  0.93434800  0.25410100  1
  Na  Na2  1  0.40964800  0.18355200  0.61005200  1
  Na  Na3  1  0.59035200  0.18355200  0.11005200  1
  Cr  Cr4  1  0.41941400  0.90606200  0.88090800  1
  Cr  Cr5  1  0.58058600  0.90606200  0.38090800  1
  Cr  Cr6  1  0.44098600  0.55830000  0.83476000  1
  Cr  Cr7  1  0.09980000  0.56817500  0.59351500  1
  Cr  Cr8  1  0.55901400  0.55830000  0.33476000  1
  Cr  Cr9  1  0.90020000  0.56817500  0.09351500  1
  Cr  Cr10  1  0.08176100  0.23746900  0.96780300  1
  Cr  Cr11  1  0.91823900  0.23746900  0.46780300  1
  O  O12  1  0.24406600  0.92297900  0.76885800  1
  O  O13  1  0.75593400  0.92297900  0.26885800  1
  O  O14  1  0.64845000  0.89579100  0.55246500  1
  O  O15  1  0.35155000  0.89579100  0.05246500  1
  O  O16  1  0.54945100  0.73469700  0.83708900  1
  O  O17  1  0.90524400  0.72107300  0.99152400  1
  O  O18  1  0.45054900  0.73469700  0.33708900  1
  O  O19  1  0.09475600  0.72107300  0.49152400  1
  O  O20  1  0.95986800  0.58843200  0.72679800  1
  O  O21  1  0.29628600  0.55216000  0.96731000  1
  O  O22  1  0.04013200  0.58843200  0.22679800  1
  O  O23  1  0.32778100  0.54264100  0.66251900  1
  O  O24  1  0.70371400  0.55216000  0.46731000  1
  O  O25  1  0.67221900  0.54264100  0.16251900  1
  O  O26  1  0.58397300  0.42074700  0.85502200  1
  O  O27  1  0.41602700  0.42074700  0.35502200  1
  O  O28  1  0.05524000  0.40655200  0.49633100  1
  O  O29  1  0.94476000  0.40655200  0.99633100  1
  O  O30  1  0.17673700  0.25430500  0.80438100  1
  O  O31  1  0.82326300  0.25430500  0.30438100  1
  O  O32  1  0.76129400  0.21350200  0.59483500  1
  O  O33  1  0.23870600  0.21350200  0.09483500  1
  O  O34  1  0.94241600  0.09142400  0.97332400  1
  O  O35  1  0.05758400  0.09142400  0.47332400  1
  O  O36  1  0.55702500  0.05179200  0.85740300  1
  O  O37  1  0.44297500  0.05179200  0.35740300  1
