# generated using pymatgen
data_BaGa12O19
_symmetry_space_group_name_H-M   'P 1'
_cell_length_a   5.88939502
_cell_length_b   5.88939502
_cell_length_c   23.29760500
_cell_angle_alpha   90.00000000
_cell_angle_beta   90.00000000
_cell_angle_gamma   120.00001151
_symmetry_Int_Tables_number   1
_chemical_formula_structural   BaGa12O19
_chemical_formula_sum   'Ba2 Ga24 O38'
_cell_volume   699.81497143
_cell_formula_units_Z   2
loop_
 _symmetry_equiv_pos_site_id
 _symmetry_equiv_pos_as_xyz
  1  'x, y, z'
loop_
 _atom_site_type_symbol
 _atom_site_label
 _atom_site_symmetry_multiplicity
 _atom_site_fract_x
 _atom_site_fract_y
 _atom_site_fract_z
 _atom_site_occupancy
  Ba  Ba0  1  0.33333300  0.66666700  0.74918700  1
  Ba  Ba1  1  0.66666700  0.33333300  0.24918700  1
  Ga  Ga2  1  0.16906500  0.83093500  0.89191600  1
  Ga  Ga3  1  0.16743600  0.83256400  0.60892400  1
  Ga  Ga4  1  0.33333300  0.66666700  0.31054000  1
  Ga  Ga5  1  0.16743600  0.33487300  0.60892400  1
  Ga  Ga6  1  0.33333300  0.66666700  0.47288200  1
  Ga  Ga7  1  0.16906500  0.33813000  0.89191600  1
  Ga  Ga8  1  0.00000000  0.00000000  0.00033500  1
  Ga  Ga9  1  0.00000000  0.00000000  0.50033500  1
  Ga  Ga10  1  0.33333300  0.66666700  0.02756800  1
  Ga  Ga11  1  0.00000000  0.00000000  0.25895000  1
  Ga  Ga12  1  0.33333300  0.66666700  0.18879600  1
  Ga  Ga13  1  0.00000000  0.00000000  0.75895000  1
  Ga  Ga14  1  0.66512700  0.83256400  0.60892400  1
  Ga  Ga15  1  0.66187000  0.83093500  0.89191600  1
  Ga  Ga16  1  0.33487300  0.16743600  0.10892400  1
  Ga  Ga17  1  0.33813000  0.16906500  0.39191600  1
  Ga  Ga18  1  0.66666700  0.33333300  0.81054000  1
  Ga  Ga19  1  0.66666700  0.33333300  0.97288200  1
  Ga  Ga20  1  0.66666700  0.33333300  0.68879600  1
  Ga  Ga21  1  0.66666700  0.33333300  0.52756800  1
  Ga  Ga22  1  0.83256400  0.66512700  0.10892400  1
  Ga  Ga23  1  0.83093500  0.66187000  0.39191600  1
  Ga  Ga24  1  0.83256400  0.16743600  0.10892400  1
  Ga  Ga25  1  0.83093500  0.16906500  0.39191600  1
  O  O26  1  0.15559900  0.84440100  0.05172500  1
  O  O27  1  0.15484000  0.84516000  0.44754000  1
  O  O28  1  0.00617000  0.50308500  0.64860800  1
  O  O29  1  0.00686200  0.50343100  0.85160600  1
  O  O30  1  0.18210800  0.81789200  0.25078100  1
  O  O31  1  0.33333300  0.66666700  0.55482700  1
  O  O32  1  0.00000000  0.00000000  0.85032100  1
  O  O33  1  0.15559900  0.31119800  0.05172500  1
  O  O34  1  0.00000000  0.00000000  0.14764000  1
  O  O35  1  0.00000000  0.00000000  0.35032100  1
  O  O36  1  0.15484000  0.30967900  0.44754000  1
  O  O37  1  0.00000000  0.00000000  0.64764000  1
  O  O38  1  0.33333300  0.66666700  0.94522200  1
  O  O39  1  0.18210800  0.36421500  0.25078100  1
  O  O40  1  0.49691500  0.99383000  0.64860800  1
  O  O41  1  0.49656900  0.99313800  0.85160600  1
  O  O42  1  0.63578500  0.81789200  0.25078100  1
  O  O43  1  0.31119800  0.15559900  0.55172500  1
  O  O44  1  0.30967900  0.15484000  0.94754000  1
  O  O45  1  0.49691500  0.50308500  0.64860800  1
  O  O46  1  0.49656900  0.50343100  0.85160600  1
  O  O47  1  0.50308500  0.49691500  0.14860800  1
  O  O48  1  0.50343100  0.49656900  0.35160600  1
  O  O49  1  0.68880200  0.84440100  0.05172500  1
  O  O50  1  0.69032100  0.84516000  0.44754000  1
  O  O51  1  0.36421500  0.18210800  0.75078100  1
  O  O52  1  0.50308500  0.00617000  0.14860800  1
  O  O53  1  0.66666700  0.33333300  0.44522200  1
  O  O54  1  0.84440100  0.68880200  0.55172500  1
  O  O55  1  0.66666700  0.33333300  0.05482700  1
  O  O56  1  0.84516000  0.69032100  0.94754000  1
  O  O57  1  0.81789200  0.63578500  0.75078100  1
  O  O58  1  0.50343100  0.00686200  0.35160600  1
  O  O59  1  0.81789200  0.18210800  0.75078100  1
  O  O60  1  0.99383000  0.49691500  0.14860800  1
  O  O61  1  0.99313800  0.49656900  0.35160600  1
  O  O62  1  0.84440100  0.15559900  0.55172500  1
  O  O63  1  0.84516000  0.15484000  0.94754000  1
