# generated using pymatgen
data_Na6Ti2O7
_symmetry_space_group_name_H-M   'P 1'
_cell_length_a   8.58790300
_cell_length_b   6.00809900
_cell_length_c   10.78516155
_cell_angle_alpha   57.13112570
_cell_angle_beta   90.00000000
_cell_angle_gamma   90.00000000
_symmetry_Int_Tables_number   1
_chemical_formula_structural   Na6Ti2O7
_chemical_formula_sum   'Na12 Ti4 O14'
_cell_volume   467.39720251
_cell_formula_units_Z   2
loop_
 _symmetry_equiv_pos_site_id
 _symmetry_equiv_pos_as_xyz
  1  'x, y, z'
loop_
 _atom_site_type_symbol
 _atom_site_label
 _atom_site_symmetry_multiplicity
 _atom_site_fract_x
 _atom_site_fract_y
 _atom_site_fract_z
 _atom_site_occupancy
  Na  Na0  1  0.57514300  0.77190800  0.40793300  1
  Na  Na1  1  0.43972200  0.09878400  0.08630500  1
  Na  Na2  1  0.72489400  0.48381600  0.82114600  1
  Na  Na3  1  0.21654000  0.91263800  0.38869800  1
  Na  Na4  1  0.07337500  0.60584600  0.81612000  1
  Na  Na5  1  0.94680800  0.27753300  0.12870300  1
  Na  Na6  1  0.42485700  0.77190800  0.90793300  1
  Na  Na7  1  0.56027800  0.09878400  0.58630500  1
  Na  Na8  1  0.78346000  0.91263800  0.88869800  1
  Na  Na9  1  0.27510600  0.48381600  0.32114600  1
  Na  Na10  1  0.05319200  0.27753300  0.62870300  1
  Na  Na11  1  0.92662500  0.60584600  0.31612000  1
  Ti  Ti12  1  0.10164400  0.97408300  0.00182100  1
  Ti  Ti13  1  0.40655400  0.40116300  0.71857600  1
  Ti  Ti14  1  0.89835600  0.97408300  0.50182100  1
  Ti  Ti15  1  0.59344600  0.40116300  0.21857600  1
  O  O16  1  0.33995100  0.48458500  0.53787700  1
  O  O17  1  0.27764400  0.15678300  0.88122600  1
  O  O18  1  0.93933200  0.20157200  0.92145400  1
  O  O19  1  0.13027000  0.89887100  0.18751600  1
  O  O20  1  0.93110200  0.67802700  0.50202300  1
  O  O21  1  0.43788500  0.69515500  0.72263700  1
  O  O22  1  0.41562300  0.21469700  0.26004700  1
  O  O23  1  0.66004900  0.48458500  0.03787700  1
  O  O24  1  0.72235600  0.15678300  0.38122600  1
  O  O25  1  0.86973000  0.89887100  0.68751600  1
  O  O26  1  0.06066800  0.20157200  0.42145400  1
  O  O27  1  0.06889800  0.67802700  0.00202300  1
  O  O28  1  0.58437700  0.21469700  0.76004700  1
  O  O29  1  0.56211500  0.69515500  0.22263700  1
