# generated using pymatgen
data_Li4Mn5Cr2O12
_symmetry_space_group_name_H-M   'P 1'
_cell_length_a   9.11502900
_cell_length_b   5.14758200
_cell_length_c   10.15204503
_cell_angle_alpha   79.28480105
_cell_angle_beta   90.00000000
_cell_angle_gamma   90.00000000
_symmetry_Int_Tables_number   1
_chemical_formula_structural   Li4Mn5Cr2O12
_chemical_formula_sum   'Li8 Mn10 Cr4 O24'
_cell_volume   468.03194381
_cell_formula_units_Z   2
loop_
 _symmetry_equiv_pos_site_id
 _symmetry_equiv_pos_as_xyz
  1  'x, y, z'
loop_
 _atom_site_type_symbol
 _atom_site_label
 _atom_site_symmetry_multiplicity
 _atom_site_fract_x
 _atom_site_fract_y
 _atom_site_fract_z
 _atom_site_occupancy
  Li  Li0  1  0.91063400  0.00961500  0.73912900  1
  Li  Li1  1  0.92408100  0.49171500  0.26692800  1
  Li  Li2  1  0.58347200  0.76007600  0.50363300  1
  Li  Li3  1  0.58552300  0.50093900  0.26487800  1
  Li  Li4  1  0.41063400  0.99038500  0.26087100  1
  Li  Li5  1  0.42408100  0.50828500  0.73307200  1
  Li  Li6  1  0.08347200  0.23992400  0.49636700  1
  Li  Li7  1  0.08552300  0.49906100  0.73512200  1
  Mn  Mn8  1  0.91399600  0.25049900  0.99797700  1
  Mn  Mn9  1  0.92535700  0.74862000  0.49824400  1
  Mn  Mn10  1  0.75172500  0.99696900  0.26031500  1
  Mn  Mn11  1  0.57898400  0.24888000  0.00498600  1
  Mn  Mn12  1  0.73522000  0.51045700  0.74032900  1
  Mn  Mn13  1  0.42535700  0.25138000  0.50175600  1
  Mn  Mn14  1  0.41399600  0.74950100  0.00202300  1
  Mn  Mn15  1  0.25172500  0.00303100  0.73968500  1
  Mn  Mn16  1  0.23522000  0.48954300  0.25967100  1
  Mn  Mn17  1  0.07898400  0.75112000  0.99501400  1
  Cr  Cr18  1  0.75211400  0.24864000  0.50448300  1
  Cr  Cr19  1  0.74616200  0.75241000  0.99853800  1
  Cr  Cr20  1  0.24616200  0.24759000  0.00146200  1
  Cr  Cr21  1  0.25211400  0.75136000  0.49551700  1
  O  O22  1  0.90551500  0.10722300  0.39165700  1
  O  O23  1  0.91284600  0.87775200  0.10112400  1
  O  O24  1  0.76499600  0.12524800  0.88805700  1
  O  O25  1  0.77377800  0.87628900  0.61064300  1
  O  O26  1  0.89560800  0.60799600  0.88573000  1
  O  O27  1  0.91011600  0.39503300  0.61504700  1
  O  O28  1  0.58610700  0.14096700  0.38987700  1
  O  O29  1  0.77032900  0.61723600  0.38552700  1
  O  O30  1  0.59547400  0.89515500  0.11662400  1
  O  O31  1  0.73253400  0.38537900  0.11746300  1
  O  O32  1  0.57494000  0.60793700  0.89741400  1
  O  O33  1  0.41284600  0.12224800  0.89887600  1
  O  O34  1  0.58486800  0.38103700  0.60941700  1
  O  O35  1  0.40551500  0.89277700  0.60834300  1
  O  O36  1  0.27377800  0.12371100  0.38935700  1
  O  O37  1  0.41011600  0.60496700  0.38495300  1
  O  O38  1  0.26499600  0.87475200  0.11194300  1
  O  O39  1  0.39560800  0.39200400  0.11427000  1
  O  O40  1  0.09547400  0.10484500  0.88337600  1
  O  O41  1  0.23253400  0.61462100  0.88253700  1
  O  O42  1  0.27032900  0.38276400  0.61447300  1
  O  O43  1  0.08610700  0.85903300  0.61012300  1
  O  O44  1  0.08486800  0.61896300  0.39058300  1
  O  O45  1  0.07494000  0.39206300  0.10258600  1
