# generated using pymatgen
data_NdRhC2
_symmetry_space_group_name_H-M   'P 1'
_cell_length_a   4.07530154
_cell_length_b   4.07530154
_cell_length_c   3.71836400
_cell_angle_alpha   90.00000000
_cell_angle_beta   90.00000000
_cell_angle_gamma   109.03897754
_symmetry_Int_Tables_number   1
_chemical_formula_structural   NdRhC2
_chemical_formula_sum   'Nd1 Rh1 C2'
_cell_volume   58.37671105
_cell_formula_units_Z   1
loop_
 _symmetry_equiv_pos_site_id
 _symmetry_equiv_pos_as_xyz
  1  'x, y, z'
loop_
 _atom_site_type_symbol
 _atom_site_label
 _atom_site_symmetry_multiplicity
 _atom_site_fract_x
 _atom_site_fract_y
 _atom_site_fract_z
 _atom_site_occupancy
  Nd  Nd0  1  0.97495500  0.02504500  0.00000000  1
  Rh  Rh1  1  0.35074800  0.64925200  0.50000000  1
  C  C2  1  0.51849300  0.19619500  0.50000000  1
  C  C3  1  0.80380500  0.48150700  0.50000000  1
