# generated using pymatgen
data_Sr2ErCu3(PbO4)2
_symmetry_space_group_name_H-M   'P 1'
_cell_length_a   3.82512200
_cell_length_b   3.82512200
_cell_length_c   15.98158600
_cell_angle_alpha   90.00000000
_cell_angle_beta   90.00000000
_cell_angle_gamma   90.00000000
_symmetry_Int_Tables_number   1
_chemical_formula_structural   Sr2ErCu3(PbO4)2
_chemical_formula_sum   'Sr2 Er1 Cu3 Pb2 O8'
_cell_volume   233.83550752
_cell_formula_units_Z   1
loop_
 _symmetry_equiv_pos_site_id
 _symmetry_equiv_pos_as_xyz
  1  'x, y, z'
loop_
 _atom_site_type_symbol
 _atom_site_label
 _atom_site_symmetry_multiplicity
 _atom_site_fract_x
 _atom_site_fract_y
 _atom_site_fract_z
 _atom_site_occupancy
  Sr  Sr0  1  0.00000000  0.00000000  0.77959100  1
  Sr  Sr1  1  0.00000000  0.00000000  0.22040900  1
  Er  Er2  1  0.00000000  0.00000000  0.00000000  1
  Cu  Cu3  1  0.00000000  0.00000000  0.50000000  1
  Cu  Cu4  1  0.50000000  0.50000000  0.89731300  1
  Cu  Cu5  1  0.50000000  0.50000000  0.10268700  1
  Pb  Pb6  1  0.50000000  0.50000000  0.38728600  1
  Pb  Pb7  1  0.50000000  0.50000000  0.61271400  1
  O  O8  1  0.00000000  0.50000000  0.91028500  1
  O  O9  1  0.50000000  0.00000000  0.08971500  1
  O  O10  1  0.00000000  0.50000000  0.08971500  1
  O  O11  1  0.50000000  0.00000000  0.91028500  1
  O  O12  1  0.00000000  0.00000000  0.38339100  1
  O  O13  1  0.50000000  0.50000000  0.74957000  1
  O  O14  1  0.50000000  0.50000000  0.25043000  1
  O  O15  1  0.00000000  0.00000000  0.61660900  1
