# generated using pymatgen
data_NaAl11O17
_symmetry_space_group_name_H-M   'P 1'
_cell_length_a   5.65336191
_cell_length_b   5.65336191
_cell_length_c   22.75263400
_cell_angle_alpha   90.00000000
_cell_angle_beta   90.00000000
_cell_angle_gamma   119.99999890
_symmetry_Int_Tables_number   1
_chemical_formula_structural   NaAl11O17
_chemical_formula_sum   'Na2 Al22 O34'
_cell_volume   629.76119083
_cell_formula_units_Z   2
loop_
 _symmetry_equiv_pos_site_id
 _symmetry_equiv_pos_as_xyz
  1  'x, y, z'
loop_
 _atom_site_type_symbol
 _atom_site_label
 _atom_site_symmetry_multiplicity
 _atom_site_fract_x
 _atom_site_fract_y
 _atom_site_fract_z
 _atom_site_occupancy
  Na  Na0  1  0.00000000  0.00000000  0.25000000  1
  Na  Na1  1  0.00000000  0.00000000  0.75000000  1
  Al  Al2  1  0.16823300  0.83176700  0.89359500  1
  Al  Al3  1  0.16823300  0.83176700  0.60640500  1
  Al  Al4  1  0.33333300  0.66666700  0.17480400  1
  Al  Al5  1  0.33333300  0.66666700  0.02624800  1
  Al  Al6  1  0.00000000  0.00000000  0.00000000  1
  Al  Al7  1  0.00000000  0.00000000  0.50000000  1
  Al  Al8  1  0.33333300  0.66666700  0.32519600  1
  Al  Al9  1  0.33333300  0.66666700  0.47375200  1
  Al  Al10  1  0.16823300  0.33646700  0.60640500  1
  Al  Al11  1  0.16823300  0.33646700  0.89359500  1
  Al  Al12  1  0.33646700  0.16823300  0.10640500  1
  Al  Al13  1  0.33646700  0.16823300  0.39359500  1
  Al  Al14  1  0.66353300  0.83176700  0.60640500  1
  Al  Al15  1  0.66353300  0.83176700  0.89359500  1
  Al  Al16  1  0.83176700  0.66353300  0.10640500  1
  Al  Al17  1  0.83176700  0.66353300  0.39359500  1
  Al  Al18  1  0.66666700  0.33333300  0.67480400  1
  Al  Al19  1  0.66666700  0.33333300  0.82519600  1
  Al  Al20  1  0.66666700  0.33333300  0.52624800  1
  Al  Al21  1  0.66666700  0.33333300  0.97375200  1
  Al  Al22  1  0.83176700  0.16823300  0.10640500  1
  Al  Al23  1  0.83176700  0.16823300  0.39359500  1
  O  O24  1  0.00248600  0.50124300  0.85592100  1
  O  O25  1  0.99751400  0.49875700  0.35592100  1
  O  O26  1  0.99751400  0.49875700  0.14407900  1
  O  O27  1  0.15575200  0.84424800  0.05007800  1
  O  O28  1  0.00248600  0.50124300  0.64407900  1
  O  O29  1  0.15575200  0.84424800  0.44992200  1
  O  O30  1  0.33333300  0.66666700  0.25000000  1
  O  O31  1  0.15575200  0.31150300  0.44992200  1
  O  O32  1  0.00000000  0.00000000  0.85635800  1
  O  O33  1  0.00000000  0.00000000  0.14364200  1
  O  O34  1  0.00000000  0.00000000  0.35635800  1
  O  O35  1  0.00000000  0.00000000  0.64364200  1
  O  O36  1  0.33333300  0.66666700  0.94586300  1
  O  O37  1  0.33333300  0.66666700  0.55413700  1
  O  O38  1  0.15575200  0.31150300  0.05007800  1
  O  O39  1  0.31150300  0.15575200  0.55007800  1
  O  O40  1  0.31150300  0.15575200  0.94992200  1
  O  O41  1  0.49875700  0.50124300  0.85592100  1
  O  O42  1  0.50124300  0.49875700  0.35592100  1
  O  O43  1  0.50124300  0.49875700  0.14407900  1
  O  O44  1  0.49875700  0.50124300  0.64407900  1
  O  O45  1  0.68849700  0.84424800  0.05007800  1
  O  O46  1  0.68849700  0.84424800  0.44992200  1
  O  O47  1  0.66666700  0.33333300  0.44586300  1
  O  O48  1  0.49875700  0.99751400  0.64407900  1
  O  O49  1  0.50124300  0.00248600  0.35592100  1
  O  O50  1  0.50124300  0.00248600  0.14407900  1
  O  O51  1  0.49875700  0.99751400  0.85592100  1
  O  O52  1  0.66666700  0.33333300  0.75000000  1
  O  O53  1  0.66666700  0.33333300  0.05413700  1
  O  O54  1  0.84424800  0.68849700  0.55007800  1
  O  O55  1  0.84424800  0.68849700  0.94992200  1
  O  O56  1  0.84424800  0.15575200  0.94992200  1
  O  O57  1  0.84424800  0.15575200  0.55007800  1
