# generated using pymatgen
data_Sr(PIr)2
_symmetry_space_group_name_H-M   'P 1'
_cell_length_a   6.78368565
_cell_length_b   6.78368565
_cell_length_c   7.14940700
_cell_angle_alpha   90.00000000
_cell_angle_beta   90.00000000
_cell_angle_gamma   119.99999656
_symmetry_Int_Tables_number   1
_chemical_formula_structural   Sr(PIr)2
_chemical_formula_sum   'Sr3 P6 Ir6'
_cell_volume   284.92601063
_cell_formula_units_Z   3
loop_
 _symmetry_equiv_pos_site_id
 _symmetry_equiv_pos_as_xyz
  1  'x, y, z'
loop_
 _atom_site_type_symbol
 _atom_site_label
 _atom_site_symmetry_multiplicity
 _atom_site_fract_x
 _atom_site_fract_y
 _atom_site_fract_z
 _atom_site_occupancy
  Sr  Sr0  1  0.00000000  0.60126300  0.83333300  1
  Sr  Sr1  1  0.39873700  0.39873700  0.50000000  1
  Sr  Sr2  1  0.60126300  0.00000000  0.16666700  1
  P  P3  1  0.87720700  0.21628200  0.54248800  1
  P  P4  1  0.21628200  0.87720700  0.45751200  1
  P  P5  1  0.12279300  0.33907500  0.12417800  1
  P  P6  1  0.78371800  0.66092500  0.20915500  1
  P  P7  1  0.33907500  0.12279300  0.87582200  1
  P  P8  1  0.66092500  0.78371800  0.79084500  1
  Ir  Ir9  1  0.87026500  0.87026500  0.50000000  1
  Ir  Ir10  1  0.12973500  0.00000000  0.16666700  1
  Ir  Ir11  1  0.49002300  0.49002300  0.00000000  1
  Ir  Ir12  1  0.00000000  0.50997700  0.33333300  1
  Ir  Ir13  1  0.50997700  0.00000000  0.66666700  1
  Ir  Ir14  1  0.00000000  0.12973500  0.83333300  1
