# generated using pymatgen
data_TlGaSe2
_symmetry_space_group_name_H-M   'P 1'
_cell_length_a   6.67219824
_cell_length_b   6.67219824
_cell_length_c   6.67219824
_cell_angle_alpha   103.86654271
_cell_angle_beta   103.86654271
_cell_angle_gamma   121.37771971
_symmetry_Int_Tables_number   1
_chemical_formula_structural   TlGaSe2
_chemical_formula_sum   'Tl2 Ga2 Se4'
_cell_volume   221.12753518
_cell_formula_units_Z   2
loop_
 _symmetry_equiv_pos_site_id
 _symmetry_equiv_pos_as_xyz
  1  'x, y, z'
loop_
 _atom_site_type_symbol
 _atom_site_label
 _atom_site_symmetry_multiplicity
 _atom_site_fract_x
 _atom_site_fract_y
 _atom_site_fract_z
 _atom_site_occupancy
  Tl  Tl0  1  0.25000000  0.25000000  0.00000000  1
  Tl  Tl1  1  0.75000000  0.75000000  0.00000000  1
  Ga  Ga2  1  0.25000000  0.75000000  0.50000000  1
  Ga  Ga3  1  0.75000000  0.25000000  0.50000000  1
  Se  Se4  1  0.84080200  0.65919800  0.50000000  1
  Se  Se5  1  0.34080200  0.84080200  0.18160300  1
  Se  Se6  1  0.15919800  0.34080200  0.50000000  1
  Se  Se7  1  0.65919800  0.15919800  0.81839700  1
