# generated using pymatgen
data_SiAu3
_symmetry_space_group_name_H-M   'P 1'
_cell_length_a   5.83626856
_cell_length_b   5.83626856
_cell_length_c   4.73934600
_cell_angle_alpha   90.00000000
_cell_angle_beta   90.00000000
_cell_angle_gamma   120.00000637
_symmetry_Int_Tables_number   1
_chemical_formula_structural   SiAu3
_chemical_formula_sum   'Si2 Au6'
_cell_volume   139.80398670
_cell_formula_units_Z   2
loop_
 _symmetry_equiv_pos_site_id
 _symmetry_equiv_pos_as_xyz
  1  'x, y, z'
loop_
 _atom_site_type_symbol
 _atom_site_label
 _atom_site_symmetry_multiplicity
 _atom_site_fract_x
 _atom_site_fract_y
 _atom_site_fract_z
 _atom_site_occupancy
  Si  Si0  1  0.33333300  0.66666700  0.75000000  1
  Si  Si1  1  0.66666700  0.33333300  0.25000000  1
  Au  Au2  1  0.16918300  0.33836700  0.25000000  1
  Au  Au3  1  0.66163300  0.83081700  0.25000000  1
  Au  Au4  1  0.16918300  0.83081700  0.25000000  1
  Au  Au5  1  0.83081700  0.66163300  0.75000000  1
  Au  Au6  1  0.33836700  0.16918300  0.75000000  1
  Au  Au7  1  0.83081700  0.16918300  0.75000000  1
