# generated using pymatgen
data_Rb3Mn
_symmetry_space_group_name_H-M   'P 1'
_cell_length_a   7.49897186
_cell_length_b   7.49897186
_cell_length_c   7.49897186
_cell_angle_alpha   129.40611164
_cell_angle_beta   129.40611164
_cell_angle_gamma   74.35799477
_symmetry_Int_Tables_number   1
_chemical_formula_structural   Rb3Mn
_chemical_formula_sum   'Rb3 Mn1'
_cell_volume   245.39936659
_cell_formula_units_Z   1
loop_
 _symmetry_equiv_pos_site_id
 _symmetry_equiv_pos_as_xyz
  1  'x, y, z'
loop_
 _atom_site_type_symbol
 _atom_site_label
 _atom_site_symmetry_multiplicity
 _atom_site_fract_x
 _atom_site_fract_y
 _atom_site_fract_z
 _atom_site_occupancy
  Rb  Rb0  1  0.75000000  0.25000000  0.50000000  1
  Rb  Rb1  1  0.25000000  0.75000000  0.50000000  1
  Rb  Rb2  1  0.50000000  0.50000000  0.00000000  1
  Mn  Mn3  1  0.00000000  0.00000000  0.00000000  1
