# generated using pymatgen
data_Rb3Ge
_symmetry_space_group_name_H-M   'P 1'
_cell_length_a   6.54962099
_cell_length_b   6.54962099
_cell_length_c   6.54962099
_cell_angle_alpha   122.94751539
_cell_angle_beta   122.94751539
_cell_angle_gamma   84.96633139
_symmetry_Int_Tables_number   1
_chemical_formula_structural   Rb3Ge
_chemical_formula_sum   'Rb3 Ge1'
_cell_volume   189.02288312
_cell_formula_units_Z   1
loop_
 _symmetry_equiv_pos_site_id
 _symmetry_equiv_pos_as_xyz
  1  'x, y, z'
loop_
 _atom_site_type_symbol
 _atom_site_label
 _atom_site_symmetry_multiplicity
 _atom_site_fract_x
 _atom_site_fract_y
 _atom_site_fract_z
 _atom_site_occupancy
  Rb  Rb0  1  0.75000000  0.25000000  0.50000000  1
  Rb  Rb1  1  0.25000000  0.75000000  0.50000000  1
  Rb  Rb2  1  0.50000000  0.50000000  0.00000000  1
  Ge  Ge3  1  0.00000000  0.00000000  0.00000000  1
