# generated using pymatgen
data_SnCl
_symmetry_space_group_name_H-M   'P 1'
_cell_length_a   3.49754541
_cell_length_b   3.49754541
_cell_length_c   10.06220900
_cell_angle_alpha   90.00000000
_cell_angle_beta   90.00000000
_cell_angle_gamma   119.99998875
_symmetry_Int_Tables_number   1
_chemical_formula_structural   SnCl
_chemical_formula_sum   'Sn2 Cl2'
_cell_volume   106.59841250
_cell_formula_units_Z   2
loop_
 _symmetry_equiv_pos_site_id
 _symmetry_equiv_pos_as_xyz
  1  'x, y, z'
loop_
 _atom_site_type_symbol
 _atom_site_label
 _atom_site_symmetry_multiplicity
 _atom_site_fract_x
 _atom_site_fract_y
 _atom_site_fract_z
 _atom_site_occupancy
  Sn  Sn0  1  0.66666700  0.33333300  0.82051000  1
  Sn  Sn1  1  0.33333300  0.66666700  0.32051000  1
  Cl  Cl2  1  0.66666700  0.33333300  0.55449100  1
  Cl  Cl3  1  0.33333300  0.66666700  0.05449100  1
