# generated using pymatgen
data_Tl3Zn
_symmetry_space_group_name_H-M   'P 1'
_cell_length_a   5.41803035
_cell_length_b   5.41803035
_cell_length_c   5.41803035
_cell_angle_alpha   60.00000000
_cell_angle_beta   60.00000000
_cell_angle_gamma   60.00000000
_symmetry_Int_Tables_number   1
_chemical_formula_structural   Tl3Zn
_chemical_formula_sum   'Tl3 Zn1'
_cell_volume   112.46290623
_cell_formula_units_Z   1
loop_
 _symmetry_equiv_pos_site_id
 _symmetry_equiv_pos_as_xyz
  1  'x, y, z'
loop_
 _atom_site_type_symbol
 _atom_site_label
 _atom_site_symmetry_multiplicity
 _atom_site_fract_x
 _atom_site_fract_y
 _atom_site_fract_z
 _atom_site_occupancy
  Tl  Tl0  1  0.50000000  0.50000000  0.50000000  1
  Tl  Tl1  1  0.25000000  0.25000000  0.25000000  1
  Tl  Tl2  1  0.75000000  0.75000000  0.75000000  1
  Zn  Zn3  1  0.00000000  0.00000000  0.00000000  1
