# generated using pymatgen
data_GeClF
_symmetry_space_group_name_H-M   'P 1'
_cell_length_a   3.76541700
_cell_length_b   3.76541700
_cell_length_c   7.28294400
_cell_angle_alpha   90.00000000
_cell_angle_beta   90.00000000
_cell_angle_gamma   90.00000000
_symmetry_Int_Tables_number   1
_chemical_formula_structural   GeClF
_chemical_formula_sum   'Ge2 Cl2 F2'
_cell_volume   103.26023965
_cell_formula_units_Z   2
loop_
 _symmetry_equiv_pos_site_id
 _symmetry_equiv_pos_as_xyz
  1  'x, y, z'
loop_
 _atom_site_type_symbol
 _atom_site_label
 _atom_site_symmetry_multiplicity
 _atom_site_fract_x
 _atom_site_fract_y
 _atom_site_fract_z
 _atom_site_occupancy
  Ge  Ge0  1  0.00000000  0.50000000  0.80311400  1
  Ge  Ge1  1  0.50000000  0.00000000  0.19688600  1
  Cl  Cl2  1  0.50000000  0.00000000  0.65235400  1
  Cl  Cl3  1  0.00000000  0.50000000  0.34764600  1
  F  F4  1  0.50000000  0.50000000  0.00000000  1
  F  F5  1  0.00000000  0.00000000  0.00000000  1
