# generated using pymatgen
data_NbFe3
_symmetry_space_group_name_H-M   'P 1'
_cell_length_a   3.57197400
_cell_length_b   3.57197400
_cell_length_c   4.85304914
_cell_angle_alpha   111.59314913
_cell_angle_beta   111.59314913
_cell_angle_gamma   90.00000000
_symmetry_Int_Tables_number   1
_chemical_formula_structural   NbFe3
_chemical_formula_sum   'Nb1 Fe3'
_cell_volume   52.87305911
_cell_formula_units_Z   1
loop_
 _symmetry_equiv_pos_site_id
 _symmetry_equiv_pos_as_xyz
  1  'x, y, z'
loop_
 _atom_site_type_symbol
 _atom_site_label
 _atom_site_symmetry_multiplicity
 _atom_site_fract_x
 _atom_site_fract_y
 _atom_site_fract_z
 _atom_site_occupancy
  Nb  Nb0  1  0.00000000  0.00000000  0.00000000  1
  Fe  Fe1  1  0.50000000  0.50000000  0.00000000  1
  Fe  Fe2  1  0.25000000  0.75000000  0.50000000  1
  Fe  Fe3  1  0.75000000  0.25000000  0.50000000  1
