# generated using pymatgen
data_KEr(PO3)4
_symmetry_space_group_name_H-M   'P 1'
_cell_length_a   8.39209000
_cell_length_b   7.32614400
_cell_length_c   7.91906435
_cell_angle_alpha   88.55040921
_cell_angle_beta   90.00000000
_cell_angle_gamma   90.00000000
_symmetry_Int_Tables_number   1
_chemical_formula_structural   KEr(PO3)4
_chemical_formula_sum   'K2 Er2 P8 O24'
_cell_volume   486.72140426
_cell_formula_units_Z   2
loop_
 _symmetry_equiv_pos_site_id
 _symmetry_equiv_pos_as_xyz
  1  'x, y, z'
loop_
 _atom_site_type_symbol
 _atom_site_label
 _atom_site_symmetry_multiplicity
 _atom_site_fract_x
 _atom_site_fract_y
 _atom_site_fract_z
 _atom_site_occupancy
  K  K0  1  0.81096300  0.26740400  0.28306900  1
  K  K1  1  0.31096300  0.73259600  0.71693100  1
  Er  Er2  1  0.50232100  0.23861300  0.75776100  1
  Er  Er3  1  0.00232100  0.76138700  0.24223900  1
  P  P4  1  0.58483100  0.90319700  0.09701200  1
  P  P5  1  0.08483100  0.09680300  0.90298800  1
  P  P6  1  0.84944100  0.99478400  0.61799000  1
  P  P7  1  0.34944100  0.00521600  0.38201000  1
  P  P8  1  0.75388700  0.61209300  0.60132900  1
  P  P9  1  0.25388700  0.38790700  0.39867100  1
  P  P10  1  0.87618400  0.43534000  0.90929000  1
  P  P11  1  0.37618400  0.56466000  0.09071000  1
  O  O12  1  0.74869100  0.90817800  0.17067600  1
  O  O13  1  0.24869100  0.09182200  0.82932400  1
  O  O14  1  0.55397900  0.98482600  0.92423900  1
  O  O15  1  0.05397900  0.01517400  0.07576100  1
  O  O16  1  0.94517400  0.96404000  0.46090000  1
  O  O17  1  0.44517400  0.03596000  0.53910000  1
  O  O18  1  0.74414800  0.16048600  0.61762800  1
  O  O19  1  0.24414800  0.83951400  0.38237200  1
  O  O20  1  0.96498900  0.99027900  0.77908800  1
  O  O21  1  0.46498900  0.00972100  0.22091200  1
  O  O22  1  0.59950300  0.52033300  0.64563600  1
  O  O23  1  0.09950300  0.47966700  0.35436400  1
  O  O24  1  0.39368200  0.46567500  0.27465300  1
  O  O25  1  0.89368200  0.53432500  0.72534700  1
  O  O26  1  0.03159800  0.30752600  0.89834000  1
  O  O27  1  0.53159800  0.69247400  0.10166000  1
  O  O28  1  0.40533200  0.42826700  0.95578300  1
  O  O29  1  0.90533200  0.57173300  0.04421700  1
  O  O30  1  0.22786900  0.67711900  0.07139900  1
  O  O31  1  0.72786900  0.32288100  0.92860100  1
  O  O32  1  0.31326000  0.39087400  0.57684600  1
  O  O33  1  0.81326000  0.60912600  0.42315400  1
  O  O34  1  0.23944900  0.18024700  0.33853300  1
  O  O35  1  0.73944900  0.81975300  0.66146700  1
