# generated using pymatgen
data_BaCa(FeO2)4
_symmetry_space_group_name_H-M   'P 1'
_cell_length_a   5.52018213
_cell_length_b   5.52018213
_cell_length_c   7.83717000
_cell_angle_alpha   90.00000000
_cell_angle_beta   90.00000000
_cell_angle_gamma   120.00000160
_symmetry_Int_Tables_number   1
_chemical_formula_structural   BaCa(FeO2)4
_chemical_formula_sum   'Ba1 Ca1 Fe4 O8'
_cell_volume   206.82198707
_cell_formula_units_Z   1
loop_
 _symmetry_equiv_pos_site_id
 _symmetry_equiv_pos_as_xyz
  1  'x, y, z'
loop_
 _atom_site_type_symbol
 _atom_site_label
 _atom_site_symmetry_multiplicity
 _atom_site_fract_x
 _atom_site_fract_y
 _atom_site_fract_z
 _atom_site_occupancy
  Ba  Ba0  1  0.00000000  0.00000000  0.00000000  1
  Ca  Ca1  1  0.00000000  0.00000000  0.50000000  1
  Fe  Fe2  1  0.33333300  0.66666700  0.75949200  1
  Fe  Fe3  1  0.66666700  0.33333300  0.75949200  1
  Fe  Fe4  1  0.33333300  0.66666700  0.24050800  1
  Fe  Fe5  1  0.66666700  0.33333300  0.24050800  1
  O  O6  1  0.33056600  0.33056600  0.69566400  1
  O  O7  1  0.66943400  0.00000000  0.69566400  1
  O  O8  1  0.00000000  0.66943400  0.69566400  1
  O  O9  1  0.66943400  0.66943400  0.30433600  1
  O  O10  1  0.00000000  0.33056600  0.30433600  1
  O  O11  1  0.33056600  0.00000000  0.30433600  1
  O  O12  1  0.33333300  0.66666700  0.00000000  1
  O  O13  1  0.66666700  0.33333300  0.00000000  1
