# generated using pymatgen
data_Er(FeO2)2
_symmetry_space_group_name_H-M   'P 1'
_cell_length_a   8.69806717
_cell_length_b   8.69806717
_cell_length_c   8.69806661
_cell_angle_alpha   23.11212868
_cell_angle_beta   23.11212868
_cell_angle_gamma   23.11212716
_symmetry_Int_Tables_number   1
_chemical_formula_structural   Er(FeO2)2
_chemical_formula_sum   'Er1 Fe2 O4'
_cell_volume   89.00103789
_cell_formula_units_Z   1
loop_
 _symmetry_equiv_pos_site_id
 _symmetry_equiv_pos_as_xyz
  1  'x, y, z'
loop_
 _atom_site_type_symbol
 _atom_site_label
 _atom_site_symmetry_multiplicity
 _atom_site_fract_x
 _atom_site_fract_y
 _atom_site_fract_z
 _atom_site_occupancy
  Er  Er0  1  0.00000000  0.00000000  0.00000000  1
  Fe  Fe1  1  0.78635500  0.78635500  0.78635500  1
  Fe  Fe2  1  0.21364500  0.21364500  0.21364500  1
  O  O3  1  0.87146700  0.87146700  0.87146700  1
  O  O4  1  0.12853300  0.12853300  0.12853300  1
  O  O5  1  0.70796600  0.70796600  0.70796600  1
  O  O6  1  0.29203400  0.29203400  0.29203400  1
