# generated using pymatgen
data_BaGd2PtO5
_symmetry_space_group_name_H-M   'P 1'
_cell_length_a   6.68901900
_cell_length_b   6.68901900
_cell_length_c   5.96272100
_cell_angle_alpha   90.00000000
_cell_angle_beta   90.00000000
_cell_angle_gamma   90.00000000
_symmetry_Int_Tables_number   1
_chemical_formula_structural   BaGd2PtO5
_chemical_formula_sum   'Ba2 Gd4 Pt2 O10'
_cell_volume   266.78987772
_cell_formula_units_Z   2
loop_
 _symmetry_equiv_pos_site_id
 _symmetry_equiv_pos_as_xyz
  1  'x, y, z'
loop_
 _atom_site_type_symbol
 _atom_site_label
 _atom_site_symmetry_multiplicity
 _atom_site_fract_x
 _atom_site_fract_y
 _atom_site_fract_z
 _atom_site_occupancy
  Ba  Ba0  1  0.00000000  0.00000000  0.00000000  1
  Ba  Ba1  1  0.50000000  0.50000000  0.00000000  1
  Gd  Gd2  1  0.82450300  0.67549700  0.50000000  1
  Gd  Gd3  1  0.67549700  0.17549700  0.50000000  1
  Gd  Gd4  1  0.32450300  0.82450300  0.50000000  1
  Gd  Gd5  1  0.17549700  0.32450300  0.50000000  1
  Pt  Pt6  1  0.50000000  0.00000000  0.00000000  1
  Pt  Pt7  1  0.00000000  0.50000000  0.00000000  1
  O  O8  1  0.50000000  0.50000000  0.50000000  1
  O  O9  1  0.00000000  0.00000000  0.50000000  1
  O  O10  1  0.13994300  0.63994300  0.25805100  1
  O  O11  1  0.86005700  0.36005700  0.25805100  1
  O  O12  1  0.36005700  0.13994300  0.25805100  1
  O  O13  1  0.63994300  0.86005700  0.25805100  1
  O  O14  1  0.13994300  0.63994300  0.74194900  1
  O  O15  1  0.63994300  0.86005700  0.74194900  1
  O  O16  1  0.86005700  0.36005700  0.74194900  1
  O  O17  1  0.36005700  0.13994300  0.74194900  1
