# generated using pymatgen
data_ZrPbO3
_symmetry_space_group_name_H-M   'P 1'
_cell_length_a   4.27679077
_cell_length_b   4.27679077
_cell_length_c   4.17635600
_cell_angle_alpha   90.00000000
_cell_angle_beta   90.00000000
_cell_angle_gamma   91.63483789
_symmetry_Int_Tables_number   1
_chemical_formula_structural   ZrPbO3
_chemical_formula_sum   'Zr1 Pb1 O3'
_cell_volume   76.35838009
_cell_formula_units_Z   1
loop_
 _symmetry_equiv_pos_site_id
 _symmetry_equiv_pos_as_xyz
  1  'x, y, z'
loop_
 _atom_site_type_symbol
 _atom_site_label
 _atom_site_symmetry_multiplicity
 _atom_site_fract_x
 _atom_site_fract_y
 _atom_site_fract_z
 _atom_site_occupancy
  Zr  Zr0  1  0.50688300  0.49311700  0.50000000  1
  Pb  Pb1  1  0.94502200  0.05497800  0.00000000  1
  O  O2  1  0.03203400  0.43684600  0.50000000  1
  O  O3  1  0.56315400  0.96796600  0.50000000  1
  O  O4  1  0.55990600  0.44009400  0.00000000  1
