# generated using pymatgen
data_YbMg2
_symmetry_space_group_name_H-M   'P 1'
_cell_length_a   6.24984292
_cell_length_b   6.24984292
_cell_length_c   9.97402000
_cell_angle_alpha   90.00000000
_cell_angle_beta   90.00000000
_cell_angle_gamma   120.00000970
_symmetry_Int_Tables_number   1
_chemical_formula_structural   YbMg2
_chemical_formula_sum   'Yb4 Mg8'
_cell_volume   337.39529951
_cell_formula_units_Z   4
loop_
 _symmetry_equiv_pos_site_id
 _symmetry_equiv_pos_as_xyz
  1  'x, y, z'
loop_
 _atom_site_type_symbol
 _atom_site_label
 _atom_site_symmetry_multiplicity
 _atom_site_fract_x
 _atom_site_fract_y
 _atom_site_fract_z
 _atom_site_occupancy
  Yb  Yb0  1  0.33333300  0.66666700  0.93850200  1
  Yb  Yb1  1  0.66666700  0.33333300  0.43850200  1
  Yb  Yb2  1  0.66666700  0.33333300  0.06149800  1
  Yb  Yb3  1  0.33333300  0.66666700  0.56149800  1
  Mg  Mg4  1  0.83119800  0.66239700  0.75000000  1
  Mg  Mg5  1  0.16880200  0.83119800  0.25000000  1
  Mg  Mg6  1  0.66239700  0.83119800  0.25000000  1
  Mg  Mg7  1  0.33760300  0.16880200  0.75000000  1
  Mg  Mg8  1  0.00000000  0.00000000  0.00000000  1
  Mg  Mg9  1  0.00000000  0.00000000  0.50000000  1
  Mg  Mg10  1  0.16880200  0.33760300  0.25000000  1
  Mg  Mg11  1  0.83119800  0.16880200  0.75000000  1
