# generated using pymatgen
data_MgTe(PbO3)2
_symmetry_space_group_name_H-M   'P 1'
_cell_length_a   5.71081074
_cell_length_b   5.71081074
_cell_length_c   5.71081074
_cell_angle_alpha   60.00000000
_cell_angle_beta   60.00000000
_cell_angle_gamma   60.00000000
_symmetry_Int_Tables_number   1
_chemical_formula_structural   MgTe(PbO3)2
_chemical_formula_sum   'Mg1 Te1 Pb2 O6'
_cell_volume   131.69773471
_cell_formula_units_Z   1
loop_
 _symmetry_equiv_pos_site_id
 _symmetry_equiv_pos_as_xyz
  1  'x, y, z'
loop_
 _atom_site_type_symbol
 _atom_site_label
 _atom_site_symmetry_multiplicity
 _atom_site_fract_x
 _atom_site_fract_y
 _atom_site_fract_z
 _atom_site_occupancy
  Mg  Mg0  1  0.00000000  0.00000000  0.00000000  1
  Te  Te1  1  0.50000000  0.50000000  0.50000000  1
  Pb  Pb2  1  0.75000000  0.75000000  0.75000000  1
  Pb  Pb3  1  0.25000000  0.25000000  0.25000000  1
  O  O4  1  0.25918900  0.74081100  0.25918900  1
  O  O5  1  0.25918900  0.74081100  0.74081100  1
  O  O6  1  0.74081100  0.25918900  0.25918900  1
  O  O7  1  0.74081100  0.74081100  0.25918900  1
  O  O8  1  0.25918900  0.25918900  0.74081100  1
  O  O9  1  0.74081100  0.25918900  0.74081100  1
