# generated using pymatgen
data_Yb4As6Rh7
_symmetry_space_group_name_H-M   'P 1'
_cell_length_a   7.23334035
_cell_length_b   7.23334035
_cell_length_c   7.23334035
_cell_angle_alpha   109.47122063
_cell_angle_beta   109.47122063
_cell_angle_gamma   109.47122063
_symmetry_Int_Tables_number   1
_chemical_formula_structural   Yb4As6Rh7
_chemical_formula_sum   'Yb4 As6 Rh7'
_cell_volume   291.33644135
_cell_formula_units_Z   1
loop_
 _symmetry_equiv_pos_site_id
 _symmetry_equiv_pos_as_xyz
  1  'x, y, z'
loop_
 _atom_site_type_symbol
 _atom_site_label
 _atom_site_symmetry_multiplicity
 _atom_site_fract_x
 _atom_site_fract_y
 _atom_site_fract_z
 _atom_site_occupancy
  Yb  Yb0  1  0.50000000  0.50000000  0.50000000  1
  Yb  Yb1  1  0.00000000  0.50000000  0.00000000  1
  Yb  Yb2  1  0.50000000  0.00000000  0.00000000  1
  Yb  Yb3  1  0.00000000  0.00000000  0.50000000  1
  As  As4  1  0.67983800  0.00000000  0.67983800  1
  As  As5  1  0.67983800  0.67983800  0.00000000  1
  As  As6  1  0.32016200  0.32016200  0.00000000  1
  As  As7  1  0.00000000  0.67983800  0.67983800  1
  As  As8  1  0.00000000  0.32016200  0.32016200  1
  As  As9  1  0.32016200  0.00000000  0.32016200  1
  Rh  Rh10  1  0.50000000  0.75000000  0.25000000  1
  Rh  Rh11  1  0.75000000  0.25000000  0.50000000  1
  Rh  Rh12  1  0.25000000  0.75000000  0.50000000  1
  Rh  Rh13  1  0.25000000  0.50000000  0.75000000  1
  Rh  Rh14  1  0.00000000  0.00000000  0.00000000  1
  Rh  Rh15  1  0.50000000  0.25000000  0.75000000  1
  Rh  Rh16  1  0.75000000  0.50000000  0.25000000  1
