# generated using pymatgen
data_RbInTe2
_symmetry_space_group_name_H-M   'P 1'
_cell_length_a   7.41637670
_cell_length_b   7.41637670
_cell_length_c   7.41637670
_cell_angle_alpha   104.89861527
_cell_angle_beta   104.89861527
_cell_angle_gamma   119.06366226
_symmetry_Int_Tables_number   1
_chemical_formula_structural   RbInTe2
_chemical_formula_sum   'Rb2 In2 Te4'
_cell_volume   307.31884212
_cell_formula_units_Z   2
loop_
 _symmetry_equiv_pos_site_id
 _symmetry_equiv_pos_as_xyz
  1  'x, y, z'
loop_
 _atom_site_type_symbol
 _atom_site_label
 _atom_site_symmetry_multiplicity
 _atom_site_fract_x
 _atom_site_fract_y
 _atom_site_fract_z
 _atom_site_occupancy
  Rb  Rb0  1  0.75000000  0.75000000  0.00000000  1
  Rb  Rb1  1  0.25000000  0.25000000  0.00000000  1
  In  In2  1  0.75000000  0.25000000  0.50000000  1
  In  In3  1  0.25000000  0.75000000  0.50000000  1
  Te  Te4  1  0.83064700  0.66935300  0.50000000  1
  Te  Te5  1  0.66935300  0.16935300  0.83870700  1
  Te  Te6  1  0.33064700  0.83064700  0.16129300  1
  Te  Te7  1  0.16935300  0.33064700  0.50000000  1
