# generated using pymatgen
data_Na4Ga3Si3ClO12
_symmetry_space_group_name_H-M   'P 1'
_cell_length_a   9.05200500
_cell_length_b   9.05200500
_cell_length_c   9.05200500
_cell_angle_alpha   90.00000000
_cell_angle_beta   90.00000000
_cell_angle_gamma   90.00000000
_symmetry_Int_Tables_number   1
_chemical_formula_structural   Na4Ga3Si3ClO12
_chemical_formula_sum   'Na8 Ga6 Si6 Cl2 O24'
_cell_volume   741.71037769
_cell_formula_units_Z   2
loop_
 _symmetry_equiv_pos_site_id
 _symmetry_equiv_pos_as_xyz
  1  'x, y, z'
loop_
 _atom_site_type_symbol
 _atom_site_label
 _atom_site_symmetry_multiplicity
 _atom_site_fract_x
 _atom_site_fract_y
 _atom_site_fract_z
 _atom_site_occupancy
  Na  Na0  1  0.67326100  0.32673900  0.32673900  1
  Na  Na1  1  0.32673900  0.32673900  0.67326100  1
  Na  Na2  1  0.32673900  0.67326100  0.32673900  1
  Na  Na3  1  0.17326100  0.17326100  0.17326100  1
  Na  Na4  1  0.67326100  0.67326100  0.67326100  1
  Na  Na5  1  0.82673900  0.17326100  0.82673900  1
  Na  Na6  1  0.82673900  0.82673900  0.17326100  1
  Na  Na7  1  0.17326100  0.82673900  0.82673900  1
  Ga  Ga8  1  0.50000000  0.25000000  0.00000000  1
  Ga  Ga9  1  0.50000000  0.75000000  0.00000000  1
  Ga  Ga10  1  0.75000000  0.00000000  0.50000000  1
  Ga  Ga11  1  0.00000000  0.50000000  0.25000000  1
  Ga  Ga12  1  0.00000000  0.50000000  0.75000000  1
  Ga  Ga13  1  0.25000000  0.00000000  0.50000000  1
  Si  Si14  1  0.25000000  0.50000000  0.00000000  1
  Si  Si15  1  0.50000000  0.00000000  0.75000000  1
  Si  Si16  1  0.50000000  0.00000000  0.25000000  1
  Si  Si17  1  0.75000000  0.50000000  0.00000000  1
  Si  Si18  1  0.00000000  0.25000000  0.50000000  1
  Si  Si19  1  0.00000000  0.75000000  0.50000000  1
  Cl  Cl20  1  0.00000000  0.00000000  0.00000000  1
  Cl  Cl21  1  0.50000000  0.50000000  0.50000000  1
  O  O22  1  0.84850900  0.42739200  0.86565700  1
  O  O23  1  0.63434300  0.92739200  0.65149100  1
  O  O24  1  0.63434300  0.07260800  0.34850900  1
  O  O25  1  0.92739200  0.65149100  0.63434300  1
  O  O26  1  0.07260800  0.65149100  0.36565700  1
  O  O27  1  0.65149100  0.63434300  0.92739200  1
  O  O28  1  0.34850900  0.36565700  0.92739200  1
  O  O29  1  0.86565700  0.84850900  0.42739200  1
  O  O30  1  0.86565700  0.15149100  0.57260800  1
  O  O31  1  0.13434300  0.84850900  0.57260800  1
  O  O32  1  0.15149100  0.57260800  0.86565700  1
  O  O33  1  0.57260800  0.13434300  0.84850900  1
  O  O34  1  0.13434300  0.15149100  0.42739200  1
  O  O35  1  0.36565700  0.92739200  0.34850900  1
  O  O36  1  0.36565700  0.07260800  0.65149100  1
  O  O37  1  0.07260800  0.34850900  0.63434300  1
  O  O38  1  0.92739200  0.34850900  0.36565700  1
  O  O39  1  0.65149100  0.36565700  0.07260800  1
  O  O40  1  0.34850900  0.63434300  0.07260800  1
  O  O41  1  0.57260800  0.86565700  0.15149100  1
  O  O42  1  0.15149100  0.42739200  0.13434300  1
  O  O43  1  0.84850900  0.57260800  0.13434300  1
  O  O44  1  0.42739200  0.86565700  0.84850900  1
  O  O45  1  0.42739200  0.13434300  0.15149100  1
