# generated using pymatgen
data_BaAl2(SiO4)2
_symmetry_space_group_name_H-M   'P 1'
_cell_length_a   5.34500962
_cell_length_b   5.34500962
_cell_length_c   7.96328900
_cell_angle_alpha   90.00000000
_cell_angle_beta   90.00000000
_cell_angle_gamma   119.99999525
_symmetry_Int_Tables_number   1
_chemical_formula_structural   BaAl2(SiO4)2
_chemical_formula_sum   'Ba1 Al2 Si2 O8'
_cell_volume   197.02444438
_cell_formula_units_Z   1
loop_
 _symmetry_equiv_pos_site_id
 _symmetry_equiv_pos_as_xyz
  1  'x, y, z'
loop_
 _atom_site_type_symbol
 _atom_site_label
 _atom_site_symmetry_multiplicity
 _atom_site_fract_x
 _atom_site_fract_y
 _atom_site_fract_z
 _atom_site_occupancy
  Ba  Ba0  1  0.00000000  0.00000000  0.00000000  1
  Al  Al1  1  0.66666700  0.33333300  0.70306700  1
  Al  Al2  1  0.33333300  0.66666700  0.29693300  1
  Si  Si3  1  0.66666700  0.33333300  0.28647200  1
  Si  Si4  1  0.33333300  0.66666700  0.71352800  1
  O  O5  1  0.66666700  0.33333300  0.48741400  1
  O  O6  1  0.33333300  0.66666700  0.51258600  1
  O  O7  1  0.56237200  0.98877100  0.79042900  1
  O  O8  1  0.42640000  0.43762800  0.79042900  1
  O  O9  1  0.01122900  0.57360000  0.79042900  1
  O  O10  1  0.43762800  0.01122900  0.20957100  1
  O  O11  1  0.57360000  0.56237200  0.20957100  1
  O  O12  1  0.98877100  0.42640000  0.20957100  1
