# generated using pymatgen
data_Cd3PCl3
_symmetry_space_group_name_H-M   'P 1'
_cell_length_a   7.79893763
_cell_length_b   7.79893763
_cell_length_c   7.25730300
_cell_angle_alpha   90.00000000
_cell_angle_beta   90.00000000
_cell_angle_gamma   119.99999684
_symmetry_Int_Tables_number   1
_chemical_formula_structural   Cd3PCl3
_chemical_formula_sum   'Cd6 P2 Cl6'
_cell_volume   382.27579074
_cell_formula_units_Z   2
loop_
 _symmetry_equiv_pos_site_id
 _symmetry_equiv_pos_as_xyz
  1  'x, y, z'
loop_
 _atom_site_type_symbol
 _atom_site_label
 _atom_site_symmetry_multiplicity
 _atom_site_fract_x
 _atom_site_fract_y
 _atom_site_fract_z
 _atom_site_occupancy
  Cd  Cd0  1  0.66666700  0.33333300  0.48521500  1
  Cd  Cd1  1  0.33333300  0.66666700  0.51478500  1
  Cd  Cd2  1  0.50000000  0.50000000  0.00000000  1
  Cd  Cd3  1  0.00000000  0.50000000  0.00000000  1
  Cd  Cd4  1  0.50000000  0.00000000  0.00000000  1
  Cd  Cd5  1  0.00000000  0.00000000  0.50000000  1
  P  P6  1  0.66666700  0.33333300  0.14208600  1
  P  P7  1  0.33333300  0.66666700  0.85791400  1
  Cl  Cl8  1  0.34250900  0.17125500  0.69057900  1
  Cl  Cl9  1  0.82874500  0.65749100  0.69057900  1
  Cl  Cl10  1  0.65749100  0.82874500  0.30942100  1
  Cl  Cl11  1  0.17125500  0.34250900  0.30942100  1
  Cl  Cl12  1  0.17125500  0.82874500  0.30942100  1
  Cl  Cl13  1  0.82874500  0.17125500  0.69057900  1
